%nprocshared=64
%mem=64GB
%chk=5_beta_QST3_opt_freq_rererere.chk
# opt=(calcfc,tight,qst3) freq cam-b3lyp/gen nosymm pseudo=read scf=xqc

4_beta_opt_freq_6_31G

0 1
 C                  1.42461800    2.27756000    0.85243600
 C                  0.65651700    2.60750100   -0.42561700
 O                  2.02764100    0.98982300    0.74593800
 C                  0.60608600    2.43659500    2.12528500
 H                  1.24855000    2.33941200   -1.29856300
 H                 -0.30884800    2.11560500   -0.45732900
 H                  1.22882900    2.19839400    2.99115500
 H                 -0.24878200    1.76058200    2.10564200
 H                  0.25426700    3.46627500    2.22306500
 H                  2.28549900    2.95153200    0.89924500
 Br                 0.32318500    4.53972200   -0.57908900
 C                  1.23639700   -0.14102500    0.61883100
 O                  1.88567100   -1.20305500    0.64448500
 O                 -0.00490800    0.01593700    0.48006000
 N                 -1.13299900   -3.50064400    0.25095500
 C                 -1.86594200   -2.30380600    0.85960200
 C                 -3.06435000   -1.76244900    0.09482700
 H                 -1.11454500   -1.50924700    0.96240800
 H                 -2.19875700   -2.64049900    1.84362500
 H                 -3.38588500   -0.86639900    0.63118600
 H                 -2.82273900   -1.45096900   -0.91989700
 H                 -3.91450100   -2.44781700    0.06564200
 C                 -2.13158700   -4.43209400   -0.38868800
 C                 -1.58834600   -5.75282400   -0.91091800
 H                 -2.59714500   -3.87873200   -1.20179300
 H                 -2.89958000   -4.61372800    0.36719900
 H                 -2.42479200   -6.30134500   -1.35086700
 H                 -0.84177500   -5.61998900   -1.69532600
 H                 -1.16566100   -6.38141500   -0.12596100
 C                 -0.43335900   -4.24279400    1.38034700
 C                  0.35693200   -3.38307000    2.35487900
 H                  0.22790400   -4.96293100    0.89804600
 H                 -1.21790200   -4.80055200    1.90017600
 H                  0.94035500   -4.06257600    2.98200800
 H                  1.04454400   -2.69020500    1.85780300
 H                 -0.29337000   -2.80732900    3.01510400
 C                 -0.05576600   -3.06374000   -0.73637300
 C                 -0.51144300   -2.18587300   -1.88584300
 H                  0.39124000   -3.99040400   -1.09960500
 H                  0.69604100   -2.50441500   -0.16272000
 H                  0.34479100   -2.08555800   -2.55778200
 H                 -1.33788300   -2.59586100   -2.47376500
 H                 -0.74819600   -1.18447800   -1.52466800

5_beta_QST3_opt_freq_rererere

0 1
 C                  1.34654800    1.39694800    1.09526700
 C                  1.02569200    1.11362100    2.57118900
 O                  1.72590400    0.09243500    0.59704300
 C                  2.47817300    2.37270800    0.86052400
 H                 -0.04597100    1.19868300    2.75952900
 H                  1.60625700    1.72754400    3.26339400
 H                  2.71328000    2.44351100   -0.20358300
 H                  3.37998300    2.06387800    1.39750600
 H                  2.18774600    3.36664500    1.21242900
 H                  0.43073000    1.67641500    0.57022600
 Br                -2.16055500    0.71871100    0.96396700
 C                  1.73998600   -0.80939400    1.58606100
 O                  2.00190500   -1.97549100    1.43221300
 O                  1.41328400   -0.25742500    2.75915900
 N                 -1.37147900   -3.14517200   -0.06536500
 C                 -2.84472000   -2.77614100    0.08638400
 C                 -3.72212800   -2.89026600   -1.15101500
 H                 -2.85439300   -1.74970200    0.47160000
 H                 -3.23369100   -3.44580300    0.85603000
 H                 -4.70331700   -2.49957700   -0.87043100
 H                 -3.36940500   -2.29156000   -1.98893300
 H                 -3.86587800   -3.92004100   -1.48547200
 C                 -1.23196200   -4.34467800   -0.96585500
 C                  0.17854400   -4.88739700   -1.12956500
 H                 -1.63210500   -4.05978200   -1.93679000
 H                 -1.89167200   -5.11089100   -0.55030300
 H                  0.12672200   -5.75059400   -1.79767500
 H                  0.85294100   -4.16092000   -1.58499100
 H                  0.61705500   -5.22433100   -0.18974300
 C                 -0.82952700   -3.51516800    1.31525300
 C                 -1.25510900   -2.60684100    2.45928200
 H                  0.25549200   -3.49924400    1.22798300
 H                 -1.15826700   -4.54229600    1.49586700
 H                 -0.56359700   -2.78212800    3.28625300
 H                 -1.21838300   -1.54351100    2.20891200
 H                 -2.26536900   -2.82470900    2.80994700
 C                 -0.54400500   -1.96779000   -0.56655100
 C                 -0.89841400   -1.40858800   -1.92999000
 H                  0.49371100   -2.29109300   -0.51745000
 H                 -0.70229300   -1.16657600    0.15830300
 H                 -0.10709200   -0.69852000   -2.18192100
 H                 -0.93901300   -2.15089100   -2.73199000
 H                 -1.82552100   -0.83583500   -1.89123200

5_beta_Berny_opt_freq

0 1
 C                  0.10118272    1.03617425    0.25266155
 C                  0.10963968    1.49628228   -1.19466236
 O                 -0.24775740   -0.36522127    0.29451804
 C                 -0.86963459    1.82520816    1.10886437
 H                  0.85856264    1.12903977   -1.87496196
 H                 -0.55985075    2.26126267   -1.54301458
 H                 -0.88605723    1.42678261    2.12518968
 H                 -1.87975463    1.76169641    0.69240044
 H                 -0.55537510    2.86967836    1.13274483
 H                  1.11029979    1.09632902    0.65255867
 Br                 1.66894766    3.39419737   -0.81227596
 C                 -0.99368026   -0.75057542   -0.75785730
 O                 -1.47334299   -1.88763817   -0.77464883
 O                 -1.12314946    0.14478330   -1.67250299
 N                 -2.59204800   -4.48740400   -0.75397500
 C                 -3.16676700   -3.32515400    0.06145300
 C                 -4.18150600   -2.42629500   -0.62206600
 H                 -2.29914400   -2.74643500    0.38086800
 H                 -3.63082100   -3.79549300    0.93198200
 H                 -4.40614400   -1.62817100    0.08888600
 H                 -3.78826400   -1.93836800   -1.51009300
 H                 -5.12097200   -2.93142300   -0.85619400
 C                 -3.69339600   -5.13653900   -1.55326300
 C                 -3.29718100   -6.36219700   -2.35987300
 H                 -4.09005400   -4.37092600   -2.21559800
 H                 -4.47827400   -5.38569200   -0.83474200
 H                 -4.17976500   -6.69479500   -2.91119000
 H                 -2.52037800   -6.14378600   -3.09470800
 H                 -2.97047200   -7.19780300   -1.73931300
 C                 -2.04813400   -5.50840700    0.23383200
 C                 -1.10317100   -4.97432700    1.29875500
 H                 -1.54717600   -6.26986500   -0.36328500
 H                 -2.92422500   -5.96933600    0.69773100
 H                 -0.70753800   -5.83851500    1.83847900
 H                 -0.26924900   -4.40285300    0.89360800
 H                 -1.60910700   -4.33479700    2.02156900
 C                 -1.42861200   -4.04634500   -1.63898800
 C                 -1.76291900   -3.16603400   -2.82980700
 H                 -0.95404800   -4.97233500   -1.96759300
 H                 -0.75340400   -3.50384000   -0.97424100
 H                 -0.84510400   -3.07864200   -3.41742000
 H                 -2.52747200   -3.57865600   -3.49251900
 H                 -2.02805000   -2.15893200   -2.51233500

C H O Br N 0
6-31G(d,p)
****





