%nprocshared=64
%mem=64GB
%chk=IRC_re.chk
# irc=(calcfc,maxpoints=80,recalc=3) cam-b3lyp/gen nosymm pseudo=read
scf=xqc

IRC_re

0 1
 C                  0.32470800   -0.12305400    0.65746800
 C                  1.43766100   -0.21828100    1.57352900
 O                  0.74849200   -1.47185200    0.57754400
 C                  0.46913600    0.71946200   -0.58348600
 H                  1.28198100   -0.53568500    2.59047800
 H                  2.44208400   -0.09472300    1.20484300
 H                 -0.30724000    0.48111200   -1.31886200
 H                  1.44967500    0.55352000   -1.04094700
 H                  0.39830700    1.77404700   -0.30773300
 H                 -0.65423300    0.00245600    1.13270700
 Br                 1.78115400    2.18275300    2.54374400
 N                  1.56255800   -4.37364500   -0.94398800
 C                  0.10331500   -4.06338400   -0.62089900
 C                 -0.73812900   -3.48165200   -1.74166300
 H                  0.12533700   -3.32436500    0.18376500
 H                 -0.31297500   -5.01076300   -0.26762200
 H                 -1.76920600   -3.46054000   -1.38013500
 H                 -0.45687200   -2.44825400   -1.94386400
 H                 -0.73359600   -4.06005500   -2.66806400
 C                  1.62002300   -5.41333800   -2.03541500
 C                  2.99913600   -5.98343400   -2.33041500
 H                  1.20556200   -4.95127400   -2.92838500
 H                  0.93669400   -6.20976400   -1.73086100
 H                  2.92415100   -6.59647700   -3.23155700
 H                  3.74115000   -5.20678200   -2.52467800
 H                  3.37007700   -6.62644300   -1.53140800
 C                  2.18042200   -4.97045500    0.31137500
 C                  2.03605900   -4.14821000    1.58175100
 H                  3.23386100   -5.12265400    0.08003500
 H                  1.71934900   -5.95459100    0.43315300
 H                  2.71536800   -4.57267700    2.32499400
 H                  2.28272000   -3.09609700    1.44034800
 H                  1.02695700   -4.18967900    1.99110500
 C                  2.33914700   -3.10259100   -1.30802700
 C                  2.29877200   -2.67316000   -2.76616200
 H                  3.37299300   -3.29392800   -1.01548800
 H                  1.91990300   -2.31640100   -0.66279900
 H                  2.83571900   -1.72292400   -2.82342200
 H                  2.79790300   -3.36753800   -3.44564100
 H                  1.29075600   -2.48769400   -3.13404700

C H O Br N 0
6-31G(d,p)
****



