%nprocshared=64
%mem=64GB
%chk=2_test_opt_freq_from_IRC.chk
# opt=(calcall,tight,cartesian) freq ucam-b3lyp/gen nosymm
scf=(qc,maxcycle=1024,vshift=100) pseudo=read

2_test_opt_freq_from_IRC

0 4
 Li              -1   -1.57353400   -6.19113200   -3.27724800
 N               -1   -1.24313500   -4.75916400   -2.09463000
 C                0   -1.90419900   -5.13570900   -0.96055300
 Cl               0   -2.63354600   -6.71139500   -0.92192800
 N               -1    1.34373600    1.46760900   -2.29586900
 C                0    2.24591600    0.45789000   -2.22635300
 Cl               0    3.82064300    0.56928000   -2.93284700
 N               -1   -4.29383800    0.88349300    1.25132200
 C                0   -4.52285700    0.80530800   -0.08189000
 Cl               0   -5.94285600    1.45063400   -0.82224500
 N                0   -1.17358300   -3.09416000   -0.60777500
 C                0   -1.87077600   -4.12700500   -0.04405100
 Cl               0   -2.53992700   -4.05847000    1.52587300
 N                0   -2.56988100   -0.18083600    0.25668800
 C                0   -3.48530400    0.15872600   -0.70002400
 Cl               0   -3.25289000   -0.23585500   -2.36453800
 N                0    0.45021100   -0.26214600   -1.14915700
 C                0    1.71924200   -0.59830300   -1.52881700
 Cl               0    2.43548300   -2.11745300   -1.13528800
 C                0   -0.82602500   -3.51837800   -1.82618500
 H                0   -0.26124800   -2.90929000   -2.51642300
 C                0   -3.12806800    0.28414600    1.40736900
 H                0   -2.64788100    0.15704800    2.36772200
 C                0    0.28998800    0.98877300   -1.64420800
 H                0   -0.63576800    1.53280900   -1.51375600
 Co               0   -0.88775700   -1.18709900    0.04098600
 C                0    1.23455400   -0.69731800    2.24747400
 C                0    0.08852800    0.11787700    2.58285900
 O                0   -0.11946500   -1.18525900    1.92128500
 C                0    1.97653900   -1.47779900    3.28296400
 H                0   -0.15781100    0.97844500    1.97406100
 H                0   -0.26944400    0.13954300    3.60608200
 H                0    2.46947100   -2.35105800    2.84838500
 H                0    1.30093200   -1.80561000    4.07598800
 H                0    2.72998800   -0.81466700    3.71655200
 H                0    1.79255200   -0.41178600    1.36042500
 N                0    2.84045700    4.49293700   -0.04227800
 C                0    2.84711900    5.29393800    1.25614400
 C                0    4.16455000    5.92521600    1.67939200
 H                0    2.48885200    4.60698700    2.03193400
 H                0    2.10805900    6.08474400    1.11160700
 H                0    3.99001900    6.37172000    2.66138400
 H                0    4.97088500    5.20367800    1.79764700
 H                0    4.49601200    6.72408100    1.01241900
 C                0    3.69025000    5.18426100   -1.07863000
 C                0    3.69617900    4.55270500   -2.46160000
 H                0    4.70354300    5.21784300   -0.68326900
 H                0    3.32205300    6.21256800   -1.12596500
 H                0    4.32759600    5.17310700   -3.10283100
 H                0    4.11483000    3.54568400   -2.46194100
 H                0    2.70641300    4.50500300   -2.91620000
 C                0    1.40549900    4.43932200   -0.56101300
 C                0    0.34078400    4.14888300    0.48733400
 H                0    1.39574100    3.66995100   -1.33384300
 H                0    1.22353500    5.40988900   -1.03060700
 H                0   -0.57005600    3.85456000   -0.03997600
 H                0    0.61937100    3.34930200    1.17852300
 H                0    0.10067300    5.02466900    1.09214900
 C                0    3.28608700    3.05210300    0.17286200
 C                0    4.68306500    2.84186600    0.72337700
 H                0    3.15610700    2.56409700   -0.78990100
 H                0    2.58630700    2.62791100    0.89632900
 H                0    4.89649100    1.77430700    0.62856500
 H                0    5.46813600    3.37569000    0.18128500
 H                0    4.72076800    3.07429200    1.78828700
 Br               0    2.09268500    2.46378900    3.40900400

Co 0
LanL2DZ
****
C H O Br Li Cl N 0
6-31G(d,p)
****

Co 0
LanL2DZ



