%nprocshared=64
%mem=64GB
%chk=5_test_opt_freq_from_IRC.chk
# opt=(calcall,tight,cartesian) freq ucam-b3lyp/gen nosymm
scf=(qc,maxcycle=1024,vshift=100) pseudo=read

5_test_opt_freq_from_IRC

0 4
 Li              -1   -1.12899900   -6.26626000   -3.42630400
 N               -1   -0.79950500   -4.83440500   -2.24362400
 C                0   -2.03643900   -4.79557600   -1.66268100
 Cl               0   -3.20027600   -6.02039600   -2.10262900
 N               -1    1.78818800    1.39289500   -2.44499900
 C                0    2.78786800    0.51008200   -2.20031500
 Cl               0    4.43081300    0.83364600   -2.64342900
 N               -1   -3.84958300    0.80833600    1.10230300
 C                0   -4.05637600    0.86803000   -0.23217500
 Cl               0   -5.47757000    1.57224600   -0.92535800
 N                0   -0.94123700   -3.06819900   -0.86973100
 C                0   -2.13812600   -3.72602300   -0.82486800
 Cl               0   -3.47758800   -3.23492700    0.11260000
 N                0   -2.08893300   -0.11939500    0.02258800
 C                0   -2.99779400    0.30292400   -0.90118900
 Cl               0   -2.78336000    0.06625200   -2.59962800
 N                0    0.94907100   -0.42076700   -1.38357800
 C                0    2.28921000   -0.59572700   -1.55654000
 Cl               0    3.12021500   -2.02080800   -1.05386000
 C                0   -0.18483500   -3.76293600   -1.72463500
 H                0    0.82826300   -3.47812900   -1.96826600
 C                0   -2.66973000    0.21152700    1.20382500
 H                0   -2.19776600   -0.02656700    2.14702600
 C                0    0.71432600    0.78276400   -1.94524500
 H                0   -0.28267200    1.19774000   -1.98605800
 Co               0   -0.40377700   -1.24065500   -0.05181300
 C                0    1.35371000   -0.32921800    2.07212200
 C                0    0.64032400    0.59674100    3.06199000
 O                0    0.39820800   -1.24936700    1.65431500
 C                0    2.55291800   -1.03541900    2.69587800
 H                0   -0.24546300    1.04156800    2.61574000
 H                0    0.37820600    0.07389600    3.97934900
 H                0    3.00498700   -1.69555400    1.95325300
 H                0    2.22383900   -1.64077200    3.54491300
 H                0    3.30899900   -0.32536300    3.04250100
 H                0    1.71664700    0.28765300    1.22932900
 N                0    1.78668000    4.52130900   -0.13450200
 C                0    1.48145700    5.31218500    1.13054500
 C                0    2.48004200    6.37830700    1.55766400
 H                0    1.35297800    4.56954800    1.91916800
 H                0    0.51349300    5.78705800    0.95898600
 H                0    2.14541500    6.75369000    2.52799000
 H                0    3.49304600    6.00001600    1.68788500
 H                0    2.50621600    7.22942100    0.87520300
 C                0    2.43406500    5.41066700   -1.17414500
 C                0    2.87318700    4.71890800   -2.45593500
 H                0    3.29510800    5.87610800   -0.69945700
 H                0    1.70594600    6.19938000   -1.38035500
 H                0    3.19433800    5.49854300   -3.15134500
 H                0    3.71997900    4.05035700   -2.29449000
 H                0    2.09116900    4.13287500   -2.93735000
 C                0    0.45691900    4.02660400   -0.70661300
 C                0   -0.41997000    3.22754800    0.24139000
 H                0    0.71464700    3.41772700   -1.57140500
 H                0   -0.06184200    4.92720400   -1.04375800
 H                0   -1.33904400    2.97578700   -0.29407300
 H                0    0.03273800    2.27998300    0.53103300
 H                0   -0.70880900    3.77712100    1.13832300
 C                0    2.64689600    3.30114100    0.15689600
 C                0    4.05027200    3.56639900    0.66763000
 H                0    2.66048800    2.72822100   -0.76886000
 H                0    2.10365000    2.72402200    0.90223300
 H                0    4.56266300    2.60183100    0.68729500
 H                0    4.63452400    4.22635400    0.02249300
 H                0    4.05926900    3.95237200    1.68785200
 Br               0    1.74676600    2.14848900    3.64103700
 C                0   -0.60110200   -2.96315700    3.31952900
 O                0   -0.24841300   -2.38497500    4.27084600
 O                0   -1.00110200   -3.62164500    2.44645400

Co 0
LanL2DZ
****
C H O Br Li Cl N 0
6-31G(d,p)
****

Co 0
LanL2DZ



