%nprocshared=64
%mem=64GB
%chk=7_test_opt_freq_from_IRC.chk
# opt=(calcall,tight,cartesian) freq ucam-b3lyp/gen nosymm
scf=(qc,maxcycle=1024,vshift=100) pseudo=read

7_test_opt_freq_from_IRC

0 4
 Li              -1   -1.21493000   -6.59159400   -3.55333800
 N               -1   -0.88453100   -5.15962600   -2.37072000
 C                0   -1.73507900   -5.44420900   -1.34177000
 Cl               0   -2.61625200   -6.94404300   -1.40103000
 N               -1    1.70234000    1.06714700   -2.57195900
 C                0    2.70655500    0.26588300   -2.13340100
 Cl               0    4.37200200    0.63356100   -2.42034600
 N               -1   -3.93523400    0.48303100    0.97523200
 C                0   -4.14101000    0.54495400   -0.36117300
 Cl               0   -5.51788500    1.32936900   -1.05772500
 N                0   -0.86538800   -3.47717600   -0.89668400
 C                0   -1.73455700   -4.42559500   -0.43479200
 Cl               0   -2.61389300   -4.27039300    1.02005800
 N                0   -2.24190500   -0.56244700   -0.09730300
 C                0   -3.12201900   -0.09080300   -1.02547100
 Cl               0   -2.91611700   -0.35184700   -2.72201400
 N                0    0.82853000   -0.69867400   -1.45985500
 C                0    2.18723300   -0.81077100   -1.45955800
 Cl               0    3.00079000   -2.13744800   -0.72457200
 C                0   -0.38827700   -3.95825600   -2.04645300
 H                0    0.32742400   -3.41793000   -2.64912200
 C                0   -2.79704000   -0.19120400    1.08366000
 H                0   -2.33088100   -0.44395300    2.02641100
 C                0    0.60473100    0.44313300   -2.14717900
 H                0   -0.39876000    0.79429900   -2.34546800
 Co               0   -0.50522700   -1.57482100   -0.18598700
 C                0    2.34997700    0.78686000    2.45261700
 C                0    1.66997200    1.60081500    3.56095400
 O                0    1.39196900    0.02149900    1.71878000
 C                0    3.51064500   -0.05496500    2.95863900
 H                0    0.61709400    1.76518600    3.35289500
 H                0    1.78235900    1.16594400    4.54767800
 H                0    3.97537400   -0.58435000    2.12413900
 H                0    3.15877800   -0.77971200    3.69301500
 H                0    4.26063700    0.59227000    3.42250800
 H                0    2.73272400    1.47959600    1.70064300
 N                0    0.53156600    4.37168200   -0.38241500
 C                0    0.51265100    5.34984400    0.78337300
 C                0    1.33448600    6.62353400    0.64333000
 H                0    0.84056200    4.78501200    1.65675500
 H                0   -0.53546300    5.61897700    0.92958400
 H                0    1.26498300    7.14971600    1.59864800
 H                0    2.39006400    6.43987200    0.44999900
 H                0    0.94713300    7.29544800   -0.12402200
 C                0    0.56034500    5.12813200   -1.69366700
 C                0    0.40051100    4.28760100   -2.95192700
 H                0    1.50712500    5.66380300   -1.71729100
 H                0   -0.23812900    5.87132300   -1.62453700
 H                0    0.60479100    4.94093700   -3.80401200
 H                0    1.08977300    3.44015300   -3.00712300
 H                0   -0.61658500    3.91157800   -3.07337100
 C                0   -0.75871800    3.55453900   -0.33636300
 C                0   -1.05042700    2.82669500    0.96300100
 H                0   -0.68770700    2.83192600   -1.14666400
 H                0   -1.55650700    4.26276000   -0.57367300
 H                0   -2.04178300    2.37490000    0.86959400
 H                0   -0.35336400    2.00758200    1.14629800
 H                0   -1.07688400    3.48720700    1.83169400
 C                0    1.69701800    3.40109700   -0.27936200
 C                0    3.09386600    3.99340400   -0.26429300
 H                0    1.59286200    2.70557800   -1.11174400
 H                0    1.52733500    2.84666200    0.64035500
 H                0    3.78663500    3.15236200   -0.35039300
 H                0    3.29828800    4.64975400   -1.11297700
 H                0    3.32394100    4.51100900    0.66792300
 Br               0    2.46176900    3.41797300    3.68125600
 C                0    0.66933900   -0.92795300    2.43499700
 O                0    0.72689900   -0.93552500    3.65388400
 O                0   -0.00707400   -1.69394900    1.67185500

Co 0
LanL2DZ
****
C H O Br Li Cl N 0
6-31G(d,p)
****

Co 0
LanL2DZ



