%nprocshared=64
%mem=64GB
%chk=Co_PC_TEABr_TS_4_re.chk
# opt=(calcall,tight,qst3,cartesian) freq cam-b3lyp/gen nosymm
scf=(qc,maxcycle=1024,vshift=100) pseudo=read

Co_PO_TEABr_CO_opt_freq4

0 4
 Li              -1   -0.65875900   -5.04605500   -3.46452200
 N               -1   -0.32836000   -3.61408700   -2.28190400
 C                0   -1.24077900   -3.86090400   -1.29753900
 Cl               0   -2.16797700   -5.33103400   -1.39118000
 N               -1    2.25851100    2.61268600   -2.48314300
 C                0    3.26313100    1.82283500   -2.02711100
 Cl               0    4.92837500    2.16711500   -2.34425900
 N               -1   -3.37906300    2.02857000    1.06404800
 C                0   -3.55523900    2.15866700   -0.27160000
 Cl               0   -4.88820600    3.02353900   -0.95609100
 N                0   -0.33385300   -1.91792300   -0.82531200
 C                0   -1.25610500   -2.83361600   -0.40097100
 Cl               0   -2.20760100   -2.63896700    1.00244600
 N                0   -1.69845500    0.97886800   -0.02155600
 C                0   -2.54510600    1.51895800   -0.94497000
 Cl               0   -2.32530000    1.31711000   -2.64693100
 N                0    1.38870500    0.89275000   -1.29727100
 C                0    2.74705300    0.77399100   -1.30683800
 Cl               0    3.56341200   -0.53476200   -0.54235400
 C                0    0.18790300   -2.42575500   -1.94351200
 H                0    0.95125700   -1.91568500   -2.51327000
 C                0   -2.26754100    1.31157500    1.16321600
 H                0   -1.82808800    1.00095800    2.10137000
 C                0    1.16240800    2.01061500   -2.02559300
 H                0    0.16036500    2.36529900   -2.22286100
 Co               0    0.03646500   -0.03266300   -0.08784000
 C                0    3.03639400    1.84080500    2.96603200
 C                0    2.42780600    2.49629400    4.21150300
 O                0    2.01630800    1.31429300    2.11077000
 C                0    4.11361000    0.81930800    3.29323600
 H                0    1.39200300    2.78079700    4.05197000
 H                0    2.50252500    1.88426800    5.10331200
 H                0    4.53295100    0.41462000    2.36977500
 H                0    3.69557700    0.00538300    3.88567400
 H                0    4.91590000    1.30099300    3.85962000
 H                0    3.48368200    2.62618700    2.35455300
 N                0    1.32268200    5.50344400    0.46368600
 C                0    1.51037600    6.28667000    1.75411300
 C                0    2.50984800    7.43481300    1.74410300
 H                0    1.78431000    5.55841800    2.51846100
 H                0    0.52483700    6.68305300    2.00569200
 H                0    2.56307200    7.81115500    2.76870800
 H                0    3.51574000    7.13490100    1.45672100
 H                0    2.19402900    8.26486300    1.11046000
 C                0    1.40030100    6.44430500   -0.72156000
 C                0    1.02815500    5.85655200   -2.07414500
 H                0    2.42128200    6.82156600   -0.74615500
 H                0    0.74228200    7.28169600   -0.47592300
 H                0    1.21009600    6.63560800   -2.81911500
 H                0    1.62605100    4.98542900   -2.35600600
 H                0   -0.02864600    5.59283500   -2.13904900
 C                0   -0.07001100    4.87590300    0.48750000
 C                0   -0.44109900    4.11550700    1.74734800
 H                0   -0.11519800    4.20671500   -0.37073900
 H                0   -0.76583200    5.70145600    0.31831200
 H                0   -1.45832200    3.74038900    1.60787600
 H                0    0.19285700    3.24262700    1.91226000
 H                0   -0.44123600    4.73980000    2.64231800
 C                0    2.33159800    4.37335500    0.32660400
 C                0    3.79602900    4.74057800    0.47531100
 H                0    2.15638500    3.93196100   -0.65220800
 H                0    2.05206100    3.62720800    1.06805500
 H                0    4.36812300    3.84802000    0.21068700
 H                0    4.11630100    5.52615500   -0.21292400
 H                0    4.06407500    5.01464100    1.49737300
 Br               0    3.37203300    4.18816400    4.63131600
 C                0    1.20966200    0.31501500    2.65255400
 O                0    1.26371100    0.08560000    3.84964300
 O                0    0.47036500   -0.24191700    1.77806100

Co_PC_TEABr_opt_freq4

0 4
 Li              -1   -0.65875900   -5.04605500   -3.46452200
 N               -1   -0.32836000   -3.61408700   -2.28190400
 C                0   -1.11427300   -3.93116000   -1.21119400
 Cl               0   -1.94280800   -5.45908000   -1.22605200
 N               -1    2.25851100    2.61268600   -2.48314300
 C                0    3.20796200    1.68244600   -2.22610500
 Cl               0    4.85853400    1.87830400   -2.70118800
 N               -1   -3.37906300    2.02857000    1.06404800
 C                0   -3.65020500    1.92313400   -0.26100700
 Cl               0   -5.08965800    2.57081000   -0.96549700
 N                0   -0.29431500   -1.93388600   -0.80970600
 C                0   -1.10344700   -2.91310600   -0.30454900
 Cl               0   -1.90880700   -2.78271300    1.19621800
 N                0   -1.69899700    0.92827400    0.04246200
 C                0   -2.63698500    1.25219200   -0.89475900
 Cl               0   -2.46663100    0.82074500   -2.55440000
 N                0    1.32781800    0.87195100   -1.38232200
 C                0    2.65742300    0.61936700   -1.55819800
 Cl               0    3.39886100   -0.82706800   -0.97195200
 C                0    0.13980500   -2.39672700   -1.98534100
 H                0    0.80381100   -1.83134100   -2.62294900
 C                0   -2.20901100    1.41662000    1.19772400
 H                0   -1.68282600    1.31890900    2.13818900
 C                0    1.15950100    2.08894500   -1.96299700
 H                0    0.19034300    2.56863800   -1.99824600
 Co               0    0.03552100   -0.02415500   -0.16559200
 C                0    3.45054300    2.00743600    2.35532400
 C                0    3.30719300    1.18618300    3.64764300
 O                0    2.34530800    1.50600700    1.54959200
 C                0    4.74215800    1.81611800    1.59556100
 H                0    2.96499100    1.80706100    4.47540900
 H                0    4.19981900    0.61048300    3.89841500
 H                0    4.70714900    2.33665200    0.63650000
 H                0    4.93595000    0.75714300    1.40490300
 H                0    5.57135600    2.22499000    2.18009000
 H                0    3.21438500    3.05263000    2.55681700
 N                0   -1.83008600    5.64734600    1.96471900
 C                0   -1.10585600    6.47313400    3.02211800
 C                0   -0.31632400    7.68348300    2.54587300
 H                0   -0.45303500    5.77090100    3.55166500
 H                0   -1.88510500    6.81136200    3.70811000
 H                0    0.19763100    8.08243800    3.42394600
 H                0    0.44866200    7.44053200    1.81069200
 H                0   -0.94843200    8.48086600    2.14925700
 C                0   -2.42317200    6.55776700    0.91885900
 C                0   -3.26574000    5.88126800   -0.15022300
 H                0   -1.59381900    7.08833700    0.45510000
 H                0   -3.01829500    7.29228500    1.46782500
 H                0   -3.64771900    6.66268100   -0.81198600
 H                0   -2.68683000    5.19084800   -0.76511000
 H                0   -4.12291900    5.34124200    0.25198300
 C                0   -2.97301900    4.89817700    2.65013800
 C                0   -2.63138600    4.23574700    3.97585100
 H                0   -3.31144300    4.13353800    1.95035500
 H                0   -3.76819600    5.63682800    2.78383200
 H                0   -3.43817400    3.53184900    4.19387100
 H                0   -1.69003000    3.68150000    3.95801500
 H                0   -2.57279600    4.94670700    4.80190700
 C                0   -0.91701700    4.60126400    1.33704800
 C                0    0.32755400    5.10986300    0.63592100
 H                0   -1.55163200    4.03033500    0.66247600
 H                0   -0.59599200    3.95590300    2.15614300
 H                0    0.76747900    4.25765900    0.11119600
 H                0    0.13958400    5.88413500   -0.11259800
 H                0    1.07188400    5.45047900    1.35636100
 Br               0    1.07855500    3.74041200    4.11945100
 C                0    1.73504200    0.53019100    2.17672700
 O                0    2.25322600    0.24342300    3.34761900
 O                0    0.78365600   -0.09514100    1.70913500

Co_PC_TEABr_TS_4_re

0 4
 Li              -1   -0.65875900   -5.04605500   -3.46452200
 N               -1   -0.32836000   -3.61408700   -2.28190400
 C                0   -1.03548100   -3.94652100   -1.16239000
 Cl               0   -1.85462700   -5.47835800   -1.13846000
 N               -1    2.25851100    2.61268600   -2.48314300
 C                0    3.25725600    1.76626200   -2.12515800
 Cl               0    4.92041600    2.10962900   -2.44865800
 N               -1   -3.37906300    2.02857000    1.06404800
 C                0   -3.58916700    1.96682300   -0.27497500
 Cl               0   -4.97297700    2.67281300   -1.03195500
 N                0   -0.18069000   -1.95415800   -0.79288500
 C                0   -0.95589200   -2.94161800   -0.24554200
 Cl               0   -1.64918900   -2.83435200    1.31146500
 N                0   -1.67619300    0.91274400    0.08766700
 C                0   -2.56621000    1.28736000   -0.88058700
 Cl               0   -2.33941200    0.89450400   -2.54663500
 N                0    1.38107800    0.80939100   -1.42873100
 C                0    2.73619300    0.66807400   -1.48761900
 Cl               0    3.54775400   -0.70093000   -0.82703900
 C                0    0.16558500   -2.40217600   -2.00220900
 H                0    0.78008400   -1.82569500   -2.67830000
 C                0   -2.23572800    1.38584500    1.23342100
 H                0   -1.76542200    1.22544600    2.19335300
 C                0    1.16243200    1.99506600   -2.04539800
 H                0    0.16176800    2.38245600   -2.18469400
 Co               0    0.06438000   -0.03618600   -0.06693300
 C                0    3.18169300    2.11942500    2.61813800
 C                0    2.40987700    2.66802900    3.80083900
 O                0    2.22432100    1.45563700    1.76821300
 C                0    4.29659300    1.17619600    3.02507800
 H                0    1.51415000    3.24529000    3.65655000
 H                0    2.72308100    2.47680900    4.81319000
 H                0    4.76407900    0.74855600    2.13623400
 H                0    3.90842100    0.36759000    3.64845700
 H                0    5.04909600    1.73119100    3.59023700
 H                0    3.57910300    2.93039800    2.01716700
 N                0    1.48852300    5.86415700    0.02738200
 C                0    1.59425300    6.71852300    1.28660900
 C                0    2.53076100    7.91617200    1.24050700
 H                0    1.90436700    6.04814400    2.09138700
 H                0    0.57981800    7.06711600    1.49217700
 H                0    2.54617100    8.33329800    2.25017600
 H                0    3.55658400    7.65080800    0.99161600
 H                0    2.19016200    8.70221600    0.56409600
 C                0    1.55926400    6.74031600   -1.20439200
 C                0    1.26961400    6.05251600   -2.53114200
 H                0    2.55756200    7.17273600   -1.21380200
 H                0    0.84972000    7.55343900   -1.03203500
 H                0    1.52136100    6.76082400   -3.32448800
 H                0    1.85732500    5.14539700   -2.69571700
 H                0    0.21365800    5.80322400   -2.64784800
 C                0    0.13091200    5.17211700    0.03356700
 C                0   -0.21207700    4.36837300    1.27531200
 H                0    0.12019300    4.51725300   -0.83610600
 H                0   -0.60205100    5.96720800   -0.12451600
 H                0   -1.23024900    3.98947400    1.15193800
 H                0    0.43397700    3.49769900    1.39164500
 H                0   -0.18881900    4.96038900    2.19148300
 C                0    2.55897800    4.78459200   -0.00897800
 C                0    4.00400400    5.24221100    0.06261900
 H                0    2.38000300    4.20790900   -0.91555000
 H                0    2.34412700    4.14094600    0.84034200
 H                0    4.61699300    4.36236800   -0.15032200
 H                0    4.26347200    5.98778500   -0.69243500
 H                0    4.27441000    5.59683400    1.05828400
 Br               0    3.53891300    4.86228600    3.92456900
 C                0    1.28708500    0.81559000    2.51379800
 O                0    1.32508400    1.04784800    3.74807500
 O                0    0.46778900    0.09576800    1.90283400

Co 0
LanL2DZ
****
C H O Br Li Cl N 0
6-31G(d,p)
****

Co 0
LanL2DZ





