%nprocshared=64
%mem=64GB
%chk=Co_PO_opt_freq4.chk
# opt=(calcall,tight,cartesian) freq cam-b3lyp/gen nosymm
scf=(qc,maxcycle=1024,vshift=100) pseudo=read

Co_PO_opt_freq4

0 4
 Li              -1   -0.65875900   -5.04605500   -3.46452200
 N               -1   -0.32836000   -3.61408700   -2.28190400
 C                0   -0.90626300   -4.01672600   -1.11214300
 Cl               0   -1.57713800   -5.61512900   -1.03292400
 N               -1    2.25851100    2.61268600   -2.48314300
 C                0    3.18854000    1.64446000   -2.31264900
 Cl               0    4.79359700    1.77058500   -2.93428800
 N               -1   -3.37906300    2.02857000    1.06404800
 C                0   -3.73295000    1.76261400   -0.21788400
 Cl               0   -5.25181600    2.24192500   -0.88111900
 N                0   -0.21892900   -1.95279300   -0.79155400
 C                0   -0.84704200   -3.01030500   -0.19460900
 Cl               0   -1.41480800   -2.97061900    1.41843900
 N                0   -1.70860600    0.91059500    0.04365100
 C                0   -2.72769900    1.08222100   -0.85098900
 Cl               0   -2.62350800    0.49204700   -2.46867400
 N                0    1.35408300    0.90842300   -1.30987800
 C                0    2.65563300    0.60189800   -1.60017600
 Cl               0    3.38552000   -0.88755700   -1.10615000
 C                0    0.06764300   -2.36199100   -2.03157400
 H                0    0.57048600   -1.73130200   -2.75048800
 C                0   -2.17311000    1.50632600    1.17580200
 H                0   -1.58734100    1.52828000    2.08503000
 C                0    1.18623100    2.13532200   -1.87476500
 H                0    0.24095600    2.65879500   -1.81815000
 Co               0   -0.00612700   -0.01163000   -0.20444100
 C                0    1.87324800   -0.68053400    2.30456600
 C                0    1.92306000    0.77066700    2.11916800
 O                0    0.73794500    0.02803400    1.74109400
 C                0    1.62142800   -1.31496900    3.63785100
 H                0    2.47226600    1.19193500    1.28214700
 H                0    1.76207600    1.42329200    2.97247000
 H                0    1.03708700   -2.23063700    3.52003200
 H                0    1.07554300   -0.63452700    4.29467200
 H                0    2.57298800   -1.57353300    4.11071800
 H                0    2.39482000   -1.28219300    1.56381200

Co 0
LanL2DZ
****
C H O Li Cl N 0
6-31G(d,p)
****

Co 0
LanL2DZ




