%nprocshared=64
%mem=64GB
%chk=Co_PO_TEABr_CO_TS_4_re.chk
# opt=(calcall,tight,qst3,cartesian) freq cam-b3lyp/gen nosymm
scf=(qc,maxcycle=1024,vshift=100) pseudo=read

Co_PO_TEABr_CO_opt_freq4_rerere

0 4
 Li              -1   -0.65875900   -5.04605500   -3.46452200
 N               -1   -0.32836000   -3.61408700   -2.28190400
 C                0   -1.46308800   -3.70008500   -1.52679200
 Cl               0   -2.54310900   -5.04022000   -1.80831700
 N               -1    2.25851100    2.61268600   -2.48314300
 C                0    3.26321800    1.75194400   -2.18487400
 Cl               0    4.90547600    2.05078000   -2.64786100
 N               -1   -3.37906300    2.02857000    1.06404800
 C                0   -3.54997100    2.10158900   -0.27448400
 Cl               0   -4.92575700    2.86146600   -0.99938000
 N                0   -0.43614500   -1.87238800   -0.88110700
 C                0   -1.54190200   -2.64401500   -0.66943300
 Cl               0   -2.75837300   -2.27785000    0.47316500
 N                0   -1.62950100    1.03708600    0.02537100
 C                0   -2.49827600    1.49672100   -0.91925700
 Cl               0   -2.25696200    1.25172200   -2.61285400
 N                0    1.43027900    0.85857900   -1.31247800
 C                0    2.77232300    0.68293500   -1.47449500
 Cl               0    3.60879100   -0.70590800   -0.88895000
 C                0    0.25073400   -2.48801800   -1.84503600
 H                0    1.18548000   -2.10579000   -2.22870700
 C                0   -2.22742400    1.38428200    1.19313800
 H                0   -1.79639800    1.11541800    2.14758700
 C                0    1.18798700    2.02633900   -1.94749400
 H                0    0.18872300    2.43195900   -2.01755800
 Co               0    0.07287600   -0.05598700   -0.04770100
 C                0    1.75541400    0.53856700    2.26030400
 C                0    0.97796900    1.41694100    3.24407900
 O                0    0.81681400   -0.29028300    1.66288300
 C                0    2.84543900   -0.27768300    2.94750100
 H                0    0.16849700    1.94351900    2.74540500
 H                0    0.58750600    0.83217700    4.07475200
 H                0    3.32764100   -0.92128900    2.20944600
 H                0    2.40462400   -0.90793800    3.72543400
 H                0    3.60331000    0.36168100    3.40858400
 H                0    2.24140700    1.19899700    1.51825700
 N                0    2.29514100    5.37887900    0.37456800
 C                0    1.98756600    6.03742100    1.71377200
 C                0    3.06050400    6.92313800    2.33020700
 H                0    1.73452800    5.22363300    2.39426800
 H                0    1.08774300    6.63421000    1.55280300
 H                0    2.70220400    7.20647300    3.32306200
 H                0    4.01700700    6.41935600    2.46280200
 H                0    3.22119000    7.84580600    1.77011200
 C                0    3.10437900    6.31159100   -0.50170100
 C                0    3.56876100    5.73699100   -1.83133500
 H                0    3.96889900    6.62053400    0.08163900
 H                0    2.47513300    7.19310400   -0.64905200
 H                0    4.00562900    6.55888400   -2.40427400
 H                0    4.34130100    4.97715600   -1.70504100
 H                0    2.77613400    5.28842600   -2.42959400
 C                0    0.96405500    5.11356900   -0.32998500
 C                0   -0.05003700    4.29445700    0.44885500
 H                0    1.21374000    4.60424500   -1.25924800
 H                0    0.56265300    6.10249000   -0.56374000
 H                0   -0.95600000    4.22671000   -0.15893100
 H                0    0.27575000    3.26840400    0.61544800
 H                0   -0.33507500    4.74254400    1.40172400
 C                0    2.99793900    4.04235000    0.55341400
 C                0    4.38447600    4.07993600    1.16698600
 H                0    3.01632800    3.58667200   -0.43523500
 H                0    2.34594000    3.44652900    1.18805700
 H                0    4.78783800    3.06770900    1.08820100
 H                0    5.07649600    4.74272300    0.64299300
 H                0    4.36390100    4.33126500    2.22778000
 Br               0    2.07686400    2.85385500    4.07200800
 C                0   -0.05693300   -2.35496000    3.07873300
 O                0   -0.22112600   -1.69602700    4.02769600
 O                0    0.07822700   -3.09880100    2.19309300

Co_PO_TEABr_CO_opt_freq4

0 4
 Li              -1   -0.65875900   -5.04605500   -3.46452200
 N               -1   -0.32836000   -3.61408700   -2.28190400
 C                0   -1.24077900   -3.86090400   -1.29753900
 Cl               0   -2.16797700   -5.33103400   -1.39118000
 N               -1    2.25851100    2.61268600   -2.48314300
 C                0    3.26313100    1.82283500   -2.02711100
 Cl               0    4.92837500    2.16711500   -2.34425900
 N               -1   -3.37906300    2.02857000    1.06404800
 C                0   -3.55523900    2.15866700   -0.27160000
 Cl               0   -4.88820600    3.02353900   -0.95609100
 N                0   -0.33385300   -1.91792300   -0.82531200
 C                0   -1.25610500   -2.83361600   -0.40097100
 Cl               0   -2.20760100   -2.63896700    1.00244600
 N                0   -1.69845500    0.97886800   -0.02155600
 C                0   -2.54510600    1.51895800   -0.94497000
 Cl               0   -2.32530000    1.31711000   -2.64693100
 N                0    1.38870500    0.89275000   -1.29727100
 C                0    2.74705300    0.77399100   -1.30683800
 Cl               0    3.56341200   -0.53476200   -0.54235400
 C                0    0.18790300   -2.42575500   -1.94351200
 H                0    0.95125700   -1.91568500   -2.51327000
 C                0   -2.26754100    1.31157500    1.16321600
 H                0   -1.82808800    1.00095800    2.10137000
 C                0    1.16240800    2.01061500   -2.02559300
 H                0    0.16036500    2.36529900   -2.22286100
 Co               0    0.03646500   -0.03266300   -0.08784000
 C                0    3.03639400    1.84080500    2.96603200
 C                0    2.42780600    2.49629400    4.21150300
 O                0    2.01630800    1.31429300    2.11077000
 C                0    4.11361000    0.81930800    3.29323600
 H                0    1.39200300    2.78079700    4.05197000
 H                0    2.50252500    1.88426800    5.10331200
 H                0    4.53295100    0.41462000    2.36977500
 H                0    3.69557700    0.00538300    3.88567400
 H                0    4.91590000    1.30099300    3.85962000
 H                0    3.48368200    2.62618700    2.35455300
 N                0    1.32268200    5.50344400    0.46368600
 C                0    1.51037600    6.28667000    1.75411300
 C                0    2.50984800    7.43481300    1.74410300
 H                0    1.78431000    5.55841800    2.51846100
 H                0    0.52483700    6.68305300    2.00569200
 H                0    2.56307200    7.81115500    2.76870800
 H                0    3.51574000    7.13490100    1.45672100
 H                0    2.19402900    8.26486300    1.11046000
 C                0    1.40030100    6.44430500   -0.72156000
 C                0    1.02815500    5.85655200   -2.07414500
 H                0    2.42128200    6.82156600   -0.74615500
 H                0    0.74228200    7.28169600   -0.47592300
 H                0    1.21009600    6.63560800   -2.81911500
 H                0    1.62605100    4.98542900   -2.35600600
 H                0   -0.02864600    5.59283500   -2.13904900
 C                0   -0.07001100    4.87590300    0.48750000
 C                0   -0.44109900    4.11550700    1.74734800
 H                0   -0.11519800    4.20671500   -0.37073900
 H                0   -0.76583200    5.70145600    0.31831200
 H                0   -1.45832200    3.74038900    1.60787600
 H                0    0.19285700    3.24262700    1.91226000
 H                0   -0.44123600    4.73980000    2.64231800
 C                0    2.33159800    4.37335500    0.32660400
 C                0    3.79602900    4.74057800    0.47531100
 H                0    2.15638500    3.93196100   -0.65220800
 H                0    2.05206100    3.62720800    1.06805500
 H                0    4.36812300    3.84802000    0.21068700
 H                0    4.11630100    5.52615500   -0.21292400
 H                0    4.06407500    5.01464100    1.49737300
 Br               0    3.37203300    4.18816400    4.63131600
 C                0    1.20966200    0.31501500    2.65255400
 O                0    1.26371100    0.08560000    3.84964300
 O                0    0.47036500   -0.24191700    1.77806100

Co_PO_TEABr_CO_TS_4_re

0 4
 Li              -1   -0.65867500   -5.04605000   -3.46455100
 N               -1   -0.32850300   -3.61412800   -2.28185100
 C                0   -1.62642600   -3.40673000   -1.91749500
 Cl               0   -2.84085900   -4.52472000   -2.49018600
 N               -1    2.25855300    2.61274800   -2.48316600
 C                0    3.20518700    1.69720400   -2.16230800
 Cl               0    4.87004200    1.88778200   -2.60072200
 N               -1   -3.37904500    2.02854400    1.06404700
 C                0   -3.48574100    2.08555500   -0.28159700
 Cl               0   -4.89510200    2.69815900   -1.07904400
 N                0   -0.48198900   -1.75521400   -1.03880800
 C                0   -1.74305700   -2.28009800   -1.16150900
 Cl               0   -3.18493300   -1.62309300   -0.53521200
 N                0   -1.48473600    1.21072300    0.12312800
 C                0   -2.34844600    1.58990500   -0.86819500
 Cl               0   -2.06599500    1.32380000   -2.55277100
 N                0    1.30230300    0.92796700   -1.29686400
 C                0    2.63739200    0.67861300   -1.43934300
 Cl               0    3.38740800   -0.71812700   -0.74702200
 C                0    0.31303500   -2.57948400   -1.72460900
 H                0    1.37830900   -2.42397900   -1.81378100
 C                0   -2.17867200    1.50367900    1.25223000
 H                0   -1.79003200    1.28501000    2.23696000
 C                0    1.14506100    2.10408100   -1.94644500
 H                0    0.17821800    2.57513100   -2.03234200
 Co               0    0.12364900   -0.10296700    0.11235700
 C                0    1.85907300    0.29513600    2.82243700
 C                0    1.15993500    1.30982800    3.72718200
 O                0    0.87335100   -0.30704300    1.98335200
 C                0    2.66717000   -0.75002000    3.57129500
 H                0    0.42909700    1.88921100    3.16570600
 H                0    0.68367900    0.83913600    4.58166000
 H                0    3.15480500   -1.41654900    2.85653900
 H                0    2.00951500   -1.33568200    4.21380200
 H                0    3.43720800   -0.26828900    4.17923600
 H                0    2.51426700    0.83516600    2.13129000
 N                0    2.44419200    5.17236400    0.60565500
 C                0    2.22628900    5.74690900    1.99929900
 C                0    3.40714400    6.42487400    2.67825100
 H                0    1.87147800    4.91917900    2.61330600
 H                0    1.41222800    6.46757300    1.90070900
 H                0    3.08855400    6.66630800    3.69535900
 H                0    4.28688400    5.78771600    2.75745000
 H                0    3.69090100    7.36251900    2.19781300
 C                0    3.35616400    6.07827000   -0.19587400
 C                0    3.71270900    5.59877500   -1.59380600
 H                0    4.26495900    6.20417600    0.38829000
 H                0    2.84924300    7.04612800   -0.22789800
 H                0    4.28767600    6.39729700   -2.06976300
 H                0    4.33757800    4.70497400   -1.58236900
 H                0    2.85253900    5.38091900   -2.22541100
 C                0    1.08779400    5.12980700   -0.10111900
 C                0   -0.02040700    4.38586600    0.62217600
 H                0    1.27016600    4.66762900   -1.06979500
 H                0    0.81422800    6.17641600   -0.25475900
 H                0   -0.92692000    4.48356000    0.01943100
 H                0    0.15984300    3.31394800    0.69969200
 H                0   -0.24728600    4.79277000    1.60881500
 C                0    2.98171400    3.75086800    0.65666700
 C                0    4.38139300    3.56680500    1.21298500
 H                0    2.91969100    3.37915500   -0.36439200
 H                0    2.27023700    3.19013600    1.26056700
 H                0    4.65587100    2.52523500    1.02823000
 H                0    5.13075900    4.18293500    0.71225700
 H                0    4.43020900    3.72518100    2.29015500
 Br               0    2.43794000    2.62484200    4.44636800
 C                0   -0.37223900   -0.99951300    2.56627400
 O                0   -0.36926900   -1.16369700    3.76332100
 O                0   -1.11908900   -1.18995400    1.59819800

Co 0
LanL2DZ
****
C H O Br Li Cl N 0
6-31G(d,p)
****

Co 0
LanL2DZ





