%nprocshared=64
%mem=64GB
%chk=IRC_3.chk
# irc=(calcfc,maxpoints=120,recalc=3) ucam-b3lyp/gen nosymm
scf=(qc,maxcycle=1024,vshift=100) pseudo=read

IRC_3

0 4
 Li              -1   -0.65875900   -5.04605500   -3.46452200
 N               -1   -0.32836000   -3.61408700   -2.28190400
 C                0   -0.99290000   -3.99281100   -1.15082900
 Cl               0   -1.72515000   -5.56927900   -1.12122100
 N               -1    2.25851100    2.61268600   -2.48314300
 C                0    3.16342900    1.60536700   -2.42078800
 Cl               0    4.74214100    1.73011600   -3.12205300
 N               -1   -3.37906300    2.02857000    1.06404800
 C                0   -3.60669200    1.94874500   -0.26815100
 Cl               0   -5.03074900    2.58943400   -1.01025300
 N                0   -0.25918700   -1.95365100   -0.78563400
 C                0   -0.95974500   -2.98758000   -0.22986400
 Cl               0   -1.63387200   -2.92650700    1.33850900
 N                0   -1.64779700    0.97270700    0.06626400
 C                0   -2.56516000    1.30731200   -0.88779900
 Cl               0   -2.33798500    0.91776700   -2.55553800
 N                0    1.37138600    0.86886500   -1.34786800
 C                0    2.63959000    0.54167400   -1.73084900
 Cl               0    3.36690500   -0.97541500   -1.34989700
 C                0    0.09039400   -2.37365400   -2.00397900
 H                0    0.65764400   -1.76216200   -2.68992400
 C                0   -2.20631400    1.43412500    1.21637100
 H                0   -1.71670700    1.30540400    2.17203200
 C                0    1.20619500    2.12090900   -1.83269200
 H                0    0.27600000    2.65726800   -1.70098400
 Co               0    0.05564800   -0.04881500   -0.08372600
 C                0    2.12422700    0.46602400    2.01659600
 C                0    1.29659100    1.60549900    2.37893700
 O                0    0.81887500   -0.01299200    1.71852100
 C                0    2.83317800   -0.29798700    3.10240500
 H                0    0.94718400    2.27922700    1.61394600
 H                0    0.80541900    1.61396300    3.33957000
 H                0    3.16557000   -1.26868800    2.72553700
 H                0    2.16116900   -0.46335200    3.94793800
 H                0    3.69982800    0.27179700    3.44559800
 H                0    2.74647800    0.61802900    1.13107000
 N                0    3.73868300    5.61795200   -0.27300200
 C                0    3.73577400    6.41402500    1.02632900
 C                0    5.05040900    7.04146000    1.46615400
 H                0    3.36016800    5.73033300    1.79274100
 H                0    3.00113200    7.20822000    0.87962300
 H                0    4.86897400    7.48769100    2.44704000
 H                0    5.85723100    6.32080800    1.58637100
 H                0    5.38536000    7.84158800    0.80319300
 C                0    4.60680000    6.30697500   -1.29771800
 C                0    4.61753300    5.68291400   -2.68374200
 H                0    5.61649600    6.32729200   -0.89224400
 H                0    4.24906700    7.33904500   -1.34216700
 H                0    5.26881800    6.29522200   -3.31264200
 H                0    5.01587600    4.66771500   -2.68639300
 H                0    3.63283000    5.65809600   -3.15069500
 C                0    2.30943300    5.57491100   -0.81307400
 C                0    1.22735400    5.29136200    0.21798900
 H                0    2.30429300    4.80417700   -1.58548800
 H                0    2.14080200    6.54798500   -1.28190000
 H                0    0.31466900    5.03574700   -0.32531500
 H                0    1.47265500    4.46186000    0.88310400
 H                0    1.00425700    6.15565700    0.84530700
 C                0    4.17300300    4.17437800   -0.05566500
 C                0    5.56292600    3.95120000    0.50750300
 H                0    4.05099300    3.68735400   -1.01949300
 H                0    3.45572600    3.75000100    0.64701200
 H                0    5.75992700    2.87938900    0.42878200
 H                0    6.35649800    4.46434500   -0.04148000
 H                0    5.61193600    4.20121400    1.56771900
 Br               0    2.86917000    3.46227600    3.20121200

Co 0
LanL2DZ
****
C H O Br Li Cl N 0
6-31G(d,p)
****

Co 0
LanL2DZ



