%nprocshared=64
%mem=64GB
%chk=PC_opt_freq_6_31G.chk
# opt=(calcfc,tight) freq cam-b3lyp/gen nosymm pseudo=read scf=xqc

PC_opt_freq_6_31G

0 1
 C                  1.00534300    1.50300000   -0.47278100
 C                 -0.46406100    1.09631500   -0.34993700
 O                  1.66681800    0.42340800    0.20091500
 C                  1.36756300    2.81966800    0.17224300
 H                 -1.05154700    1.30333100   -1.24504800
 H                 -0.94489900    1.56106400    0.51820400
 H                  2.44175400    2.99994400    0.10181100
 H                  1.08361600    2.81790200    1.22747700
 H                  0.84851200    3.64078800   -0.33030700
 H                  1.32584700    1.48351500   -1.52098800
 C                  0.84399800   -0.64871100    0.27261400
 O                 -0.39898000   -0.31263400   -0.15153900
 O                  1.16241400   -1.73125700    0.65244500

C H O 0
6-31G(d,p)
****



