%nprocshared=64
%mem=64GB
%chk=TS_new_all.chk
# opt=(calcall,tight,qst3,cartesian) freq cam-b3lyp/gen nosymm
scf=(qc,maxcycle=1024,vshift=100) pseudo=read

TS_new_all

0 4
 Li              -1   -0.65875900   -5.04605500   -3.46452200
 N               -1   -0.32836000   -3.61408700   -2.28190400
 C                0   -0.93885000   -4.00953900   -1.12599000
 Cl               0   -1.62794300   -5.60229700   -1.06631500
 N               -1    2.25851100    2.61268600   -2.48314300
 C                0    3.15031500    1.59284400   -2.43423400
 Cl               0    4.71157600    1.68716100   -3.17364900
 N               -1   -3.37906300    2.02857000    1.06404800
 C                0   -3.60778400    1.91988600   -0.26691900
 Cl               0   -5.03441200    2.53532600   -1.01958900
 N                0   -0.24373700   -1.95172800   -0.79081200
 C                0   -0.89558100   -3.00307200   -0.20724100
 Cl               0   -1.50835500   -2.95581600    1.38660600
 N                0   -1.64398000    0.96084700    0.09041000
 C                0   -2.56391200    1.27129100   -0.87214700
 Cl               0   -2.32841800    0.84663600   -2.52865400
 N                0    1.36651900    0.88701500   -1.32979300
 C                0    2.62522600    0.53902700   -1.73228900
 Cl               0    3.33393400   -0.98703400   -1.35342400
 C                0    0.06918300   -2.36422800   -2.02277700
 H                0    0.59474200   -1.73994700   -2.73024500
 C                0   -2.20591600    1.44495900    1.23130800
 H                0   -1.72231900    1.34360800    2.19350300
 C                0    1.21101500    2.14223800   -1.81591600
 H                0    0.29281000    2.69496800   -1.66902100
 Co               0    0.04179200   -0.04234200   -0.13280000
 C                0    2.23048000    0.37925900    2.03449600
 C                0    1.09736800    1.15888900    2.48336700
 O                0    0.85645300   -0.07831500    1.73005400
 C                0    3.01729600   -0.48994500    2.95896000
 H                0    0.83170100    2.06987200    1.95958600
 H                0    0.78159100    1.09388000    3.51940600
 H                0    3.46442300   -1.33228200    2.42514000
 H                0    2.38677600   -0.87070500    3.76548900
 H                0    3.80877500    0.13059700    3.38743400
 H                0    2.74637900    0.74299500    1.15185500
 N                0    4.09478300    5.50193900   -0.19063700
 C                0    4.22518400    6.22331200    1.14754500
 C                0    5.57250200    6.84969600    1.47331600
 H                0    3.95259500    5.48496300    1.91101700
 H                0    3.46755100    7.00940300    1.12759400
 H                0    5.49518900    7.23289300    2.49377800
 H                0    6.39446300    6.13620000    1.46321400
 H                0    5.82497000    7.69318300    0.82706000
 C                0    4.83405300    6.26333800   -1.26207500
 C                0    4.70747900    5.71314900   -2.67389500
 H                0    5.88121400    6.28624800   -0.96676600
 H                0    4.45618800    7.28800900   -1.21255900
 H                0    5.26756500    6.37766400   -3.33676500
 H                0    5.13172700    4.71338600   -2.77428700
 H                0    3.67786100    5.67880700   -3.03079400
 C                0    2.61632300    5.46162000   -0.56917500
 C                0    1.66084800    5.09923100    0.55869100
 H                0    2.53299900    4.73686800   -1.37998800
 H                0    2.38369700    6.45500900   -0.96249100
 H                0    0.70640600    4.82254100    0.10373500
 H                0    2.01245800    4.26576700    1.17289300
 H                0    1.47318300    5.93699100    1.23218900
 C                0    4.56895100    4.05678300   -0.10675600
 C                0    6.01316000    3.83224900    0.29639000
 H                0    4.35564800    3.62618300   -1.08188900
 H                0    3.94315100    3.57961100    0.65084700
 H                0    6.22301700    2.77458200    0.11940700
 H                0    6.73961900    4.40646100   -0.28485700
 H                0    6.15096800    4.00316800    1.36468000
 Br               0    3.65034700    3.24222600    3.16810300

Co_PO_TEABr_ring_opened_opt_freq4

0 4
 Li              -1   -0.65875900   -5.04605500   -3.46452200
 N               -1   -0.32836000   -3.61408700   -2.28190400
 C                0   -1.29377800   -3.83577200   -1.34288000
 Cl               0   -2.25948700   -5.27954800   -1.48452900
 N               -1    2.25851100    2.61268600   -2.48314300
 C                0    3.26426200    1.76301900   -2.15764300
 Cl               0    4.91234500    2.06962500   -2.59582800
 N               -1   -3.37906300    2.02857000    1.06404800
 C                0   -3.54986600    2.10027000   -0.27480300
 Cl               0   -4.91147000    2.88506500   -1.00126100
 N                0   -0.35470200   -1.92150200   -0.81874500
 C                0   -1.32108800   -2.81001700   -0.44469000
 Cl               0   -2.33299500   -2.59092000    0.91435200
 N                0   -1.65284700    0.99502400    0.02612200
 C                0   -2.51188100    1.47062300   -0.91865800
 Cl               0   -2.27408000    1.21707500   -2.61206400
 N                0    1.42389700    0.86437300   -1.30493000
 C                0    2.77013300    0.69847100   -1.44227600
 Cl               0    3.60902800   -0.67234600   -0.81963400
 C                0    0.20477800   -2.44121000   -1.91176900
 H                0    1.00999400   -1.95258500   -2.44094900
 C                0   -2.24107600    1.35936000    1.19331900
 H                0   -1.80919200    1.08792300    2.14654000
 C                0    1.18347000    2.02303700   -1.95811400
 H                0    0.18199400    2.41932100   -2.05020300
 Co               0    0.07667800   -0.06028000   -0.02303500
 C                0    1.73981800    0.51532600    2.32020000
 C                0    0.97552700    1.43257800    3.28003300
 O                0    0.78002600   -0.25522800    1.69436500
 C                0    2.74814500   -0.36753600    3.04763500
 H                0    0.19752700    1.98463200    2.75910400
 H                0    0.54232600    0.87179100    4.10686500
 H                0    3.25300800   -1.00614400    2.32035500
 H                0    2.22122500   -1.01098000    3.75879500
 H                0    3.49782100    0.21931400    3.58615900
 H                0    2.29402200    1.15363800    1.60526900
 N                0    2.25706600    5.34618800    0.41705800
 C                0    1.94635900    5.98882400    1.76325100
 C                0    3.01639100    6.87032600    2.39060100
 H                0    1.69672600    5.16713100    2.43534000
 H                0    1.04472500    6.58449600    1.60840500
 H                0    2.65683300    7.14046300    3.38666800
 H                0    3.97402500    6.36725700    2.51766000
 H                0    3.17490700    7.80008800    1.84171000
 C                0    3.06527800    6.29100600   -0.44714500
 C                0    3.53397900    5.73327000   -1.78239700
 H                0    3.92785100    6.59562800    0.14127200
 H                0    2.43377700    7.17238400   -0.58547000
 H                0    3.96953900    6.56316500   -2.34474300
 H                0    4.30843400    4.97424200   -1.66340900
 H                0    2.74416800    5.28924600   -2.38769500
 C                0    0.92771200    5.08617600   -0.29260800
 C                0   -0.08472400    4.25338600    0.47353900
 H                0    1.18000600    4.58990400   -1.22815400
 H                0    0.52365400    6.07690100   -0.51385200
 H                0   -0.99087800    4.19257900   -0.13470200
 H                0    0.24341900    3.22561800    0.62419500
 H                0   -0.37082600    4.68678000    1.43291800
 C                0    2.96303000    4.00929100    0.58143400
 C                0    4.34989300    4.04363200    1.19441600
 H                0    2.98270100    3.56458400   -0.41206700
 H                0    2.31235000    3.40424900    1.20872600
 H                0    4.75546900    3.03328700    1.10388200
 H                0    5.03961600    4.71372400    0.67674100
 H                0    4.32929100    4.28287800    2.25791300
 Br               0    2.10601200    2.83242000    4.13221300

TS_new

0 4
 Li              -1   -0.65875900   -5.04605500   -3.46452200
 N               -1   -0.32836000   -3.61408700   -2.28190400
 C                0   -0.93885000   -4.00953900   -1.12599000
 Cl               0   -1.62794300   -5.60229700   -1.06631500
 N               -1    2.25851100    2.61268600   -2.48314300
 C                0    3.15031500    1.59284400   -2.43423400
 Cl               0    4.71157600    1.68716100   -3.17364900
 N               -1   -3.37906300    2.02857000    1.06404800
 C                0   -3.60778400    1.91988600   -0.26691900
 Cl               0   -5.03441200    2.53532600   -1.01958900
 N                0   -0.24373700   -1.95172800   -0.79081200
 C                0   -0.89558100   -3.00307200   -0.20724100
 Cl               0   -1.50835500   -2.95581600    1.38660600
 N                0   -1.64398000    0.96084700    0.09041000
 C                0   -2.56391200    1.27129100   -0.87214700
 Cl               0   -2.32841800    0.84663600   -2.52865400
 N                0    1.36651900    0.88701500   -1.32979300
 C                0    2.62522600    0.53902700   -1.73228900
 Cl               0    3.33393400   -0.98703400   -1.35342400
 C                0    0.06918300   -2.36422800   -2.02277700
 H                0    0.59474200   -1.73994700   -2.73024500
 C                0   -2.20591600    1.44495900    1.23130800
 H                0   -1.72231900    1.34360800    2.19350300
 C                0    1.21101500    2.14223800   -1.81591600
 H                0    0.29281000    2.69496800   -1.66902100
 Co               0    0.15626979    0.01840393   -0.06317031
 C                0    2.37411409    0.55549943    2.05785107
 C                0    1.57983590    1.72889133    2.54917950
 O                0    0.97093079   -0.01756907    1.79968369
 C                0    3.16363644   -0.53856324    2.74257753
 H                0    1.19929160    2.27752723    1.71588392
 H                0    0.99046850    1.80269367    3.15750115
 H                0    3.44557902   -1.52881946    2.37608199
 H                0    2.91164292   -0.60723817    3.80314610
 H                0    4.00535622    0.14807556    2.61954784
 H                0    2.90222092    0.81468762    1.14888256
 N                0    4.09478300    5.50193900   -0.19063700
 C                0    4.22518400    6.22331200    1.14754500
 C                0    5.57250200    6.84969600    1.47331600
 H                0    3.95259500    5.48496300    1.91101700
 H                0    3.46755100    7.00940300    1.12759400
 H                0    5.49518900    7.23289300    2.49377800
 H                0    6.39446300    6.13620000    1.46321400
 H                0    5.82497000    7.69318300    0.82706000
 C                0    4.83405300    6.26333800   -1.26207500
 C                0    4.70747900    5.71314900   -2.67389500
 H                0    5.88121400    6.28624800   -0.96676600
 H                0    4.45618800    7.28800900   -1.21255900
 H                0    5.26756500    6.37766400   -3.33676500
 H                0    5.13172700    4.71338600   -2.77428700
 H                0    3.67786100    5.67880700   -3.03079400
 C                0    2.61632300    5.46162000   -0.56917500
 C                0    1.66084800    5.09923100    0.55869100
 H                0    2.53299900    4.73686800   -1.37998800
 H                0    2.38369700    6.45500900   -0.96249100
 H                0    0.70640600    4.82254100    0.10373500
 H                0    2.01245800    4.26576700    1.17289300
 H                0    1.47318300    5.93699100    1.23218900
 C                0    4.56895100    4.05678300   -0.10675600
 C                0    6.01316000    3.83224900    0.29639000
 H                0    4.35564800    3.62618300   -1.08188900
 H                0    3.94315100    3.57961100    0.65084700
 H                0    6.22301700    2.77458200    0.11940700
 H                0    6.73961900    4.40646100   -0.28485700
 H                0    6.15096800    4.00316800    1.36468000
 Br               0    3.02867008    3.67765959    3.33558779

Co 0
LanL2DZ
****
C H O Br Li Cl N 0
6-31G(d,p)
****

Co 0
LanL2DZ











