%nprocshared=64
%mem=64GB
%chk=PO_opt_freq_6_31G.chk
# opt=(calcfc,tight) freq cam-b3lyp/gen nosymm pseudo=read scf=xqc

PO_opt_freq_6_31G

0 1
 C                 -0.14953800   -0.04596900    0.48814700
 C                  1.03936800    0.61387200   -0.05716100
 O                  0.82109300   -0.77916800   -0.25163800
 C                 -1.50346800    0.10004500   -0.14750900
 H                  1.86960600    0.87320100    0.59824500
 H                  0.94285800    1.23179700   -0.94934600
 H                 -2.07242000   -0.82976800   -0.06018700
 H                 -1.40175100    0.33883500   -1.20875700
 H                 -2.07693600    0.89521100    0.33815500
 H                 -0.15121300   -0.27285400    1.55575600

C H O 0
6-31G(d,p)
****



