%nprocshared=64
%mem=64GB
%chk=Zn_PO_TEABr_CO_bind_opt_freq3_re.chk
# opt=(calcall,tight,cartesian) freq cam-b3lyp/gen nosymm
scf=(qc,maxcycle=1024,vshift=100) pseudo=read

Zn_PO_TEABr_CO_bind_opt_freq3_re

0 1
 Li              -1   -0.65617400   -5.03839400   -3.45744000
 N               -1   -0.28279200   -3.67558200   -2.19468400
 C                0   -0.88055300   -4.09959900   -1.04384800
 Cl               0   -1.59514100   -5.68330000   -1.02980800
 N               -1    2.32822800    2.59904900   -2.41943300
 C                0    3.25584900    1.61855100   -2.30672800
 Cl               0    4.89360700    1.82281200   -2.83467100
 N               -1   -3.32748300    2.07508300    1.06572900
 C                0   -3.49358600    2.08111000   -0.27673800
 Cl               0   -4.80831000    2.89646100   -1.05079300
 Zn               0    0.11017900   -0.07883000   -0.03274300
 N                0   -0.14701100   -2.06368500   -0.64985100
 C                0   -0.80682100   -3.12458100   -0.09248300
 Cl               0   -1.38943600   -3.12501900    1.51166300
 N                0   -1.66309700    0.89123000    0.09704000
 C                0   -2.49223700    1.36335600   -0.87943300
 Cl               0   -2.23880400    1.01762900   -2.55408900
 N                0    1.39553400    0.78047800   -1.43672000
 C                0    2.70499500    0.51298700   -1.70529900
 Cl               0    3.45479000   -0.98757100   -1.29609800
 C                0    0.13916600   -2.44072600   -1.89892900
 H                0    0.66075500   -1.79968400   -2.59473500
 C                0   -2.23115400    1.35334200    1.24219700
 H                0   -1.81848100    1.10879900    2.21205200
 C                0    1.23658500    2.04518500   -1.89662700
 H                0    0.28004500    2.54826500   -1.84556600
 C                0    1.55354600    0.69245100    5.06862500
 C                0    0.17896200    1.14697500    5.55587800
 O                0    1.68981400    0.90017400    3.65133000
 C                0    1.91130600   -0.72818900    5.47144900
 H                0   -0.12538500    2.06516900    5.05645000
 H                0   -0.58195000    0.38599000    5.42301800
 H                0    2.91424600   -0.97573300    5.11569400
 H                0    1.19766200   -1.43343900    5.04492100
 H                0    1.89688800   -0.81801000    6.55989800
 H                0    2.29551800    1.38139400    5.48265000
 N                0    3.12546000    3.95582100    1.46049200
 C                0    2.84603100    4.03397700    2.95340500
 C                0    4.04157500    4.17336200    3.88571200
 H                0    2.27590500    3.13490000    3.19281000
 H                0    2.19668700    4.90102700    3.08883100
 H                0    3.65252200    4.12639000    4.90619300
 H                0    4.77210000    3.37342600    3.77901800
 H                0    4.55102500    5.13280500    3.78094700
 C                0    4.25958800    4.88618600    1.09771600
 C                0    4.57797100    5.00277800   -0.38446200
 H                0    5.13704600    4.53446100    1.63726100
 H                0    3.98663400    5.86140600    1.50958200
 H                0    5.39879800    5.71764100   -0.48367100
 H                0    4.90982200    4.06143900   -0.82417000
 H                0    3.74277500    5.37616400   -0.97705000
 C                0    1.87330500    4.41681100    0.71637400
 C                0    0.56135900    3.82555600    1.20543500
 H                0    2.03307200    4.15274800   -0.32919500
 H                0    1.86092900    5.50634600    0.80654800
 H                0   -0.21523000    4.10969800    0.49176200
 H                0    0.57502400    2.73665700    1.24630900
 H                0    0.25719500    4.20944100    2.18041500
 C                0    3.41227900    2.52879900    1.01291200
 C                0    4.56948600    1.81514100    1.68407300
 H                0    3.56236700    2.58701400   -0.06220200
 H                0    2.50543300    1.95184500    1.19279800
 H                0    4.70484000    0.87834000    1.13811700
 H                0    5.51838400    2.35611900    1.63920500
 H                0    4.33959000    1.54828200    2.71634300
 Br               0    0.24746800    1.57055600    7.47000000
 C                0    0.83834400    0.21814600    2.80047400
 O                0   -0.10367900   -0.42668500    3.23632200
 O                0    1.18211100    0.40451400    1.58188900

Zn 0
LanL2DZ
****
C H O Br Li Cl N 0
6-31G(d,p)
****

Zn 0
LanL2DZ





