%nprocshared=64
%mem=64GB
%chk=Zn_PO_TEABr_CO_TS_3_rere.chk
# opt=(calcall,tight,qst3,cartesian) freq cam-b3lyp/gen nosymm
scf=(qc,maxcycle=1024,vshift=100) pseudo=read

Zn_PO_TEABr_CO_opt_freq3

0 1
 Li              -1   -0.65617400   -5.03839400   -3.45744000
 N               -1   -0.28279200   -3.67558200   -2.19468400
 C                0   -1.44836800   -3.72473000   -1.48580800
 Cl               0   -2.56544700   -5.02050300   -1.82241600
 N               -1    2.32822800    2.59904900   -2.41943300
 C                0    3.34227900    1.75376700   -2.10777100
 Cl               0    4.98672300    2.08202600   -2.54117600
 N               -1   -3.32748300    2.07508300    1.06572900
 C                0   -3.50212200    2.09401400   -0.27413800
 Cl               0   -4.87701400    2.82912700   -1.02647500
 Zn               0    0.14241300   -0.07736700    0.04551300
 N                0   -0.38957400   -1.93007500   -0.79695500
 C                0   -1.52704100   -2.66611500   -0.63084200
 Cl               0   -2.78022200   -2.26094800    0.45730800
 N                0   -1.58548800    1.03346700    0.06340300
 C                0   -2.45446600    1.45898900   -0.89605800
 Cl               0   -2.21165700    1.15083400   -2.58009600
 N                0    1.50947800    0.82458100   -1.27248700
 C                0    2.85689500    0.67426000   -1.41047600
 Cl               0    3.70267500   -0.70552100   -0.81536000
 C                0    0.31384200   -2.56825600   -1.73466000
 H                0    1.27508200   -2.21782000   -2.08257600
 C                0   -2.17776100    1.43213000    1.21711300
 H                0   -1.73880800    1.20714400    2.17974200
 C                0    1.25893800    1.99226600   -1.90521600
 H                0    0.25404200    2.38189300   -1.99072700
 C                0    1.81584600    0.65042900    2.36462900
 C                0    1.07188600    1.54912800    3.35730100
 O                0    0.85179000   -0.18820800    1.83267100
 C                0    2.94026500   -0.13856400    3.02985800
 H                0    0.24256400    2.06116500    2.87623800
 H                0    0.71515000    0.98104700    4.21406200
 H                0    3.40480700   -0.79162900    2.28838500
 H                0    2.53373800   -0.75913800    3.83358600
 H                0    3.70725400    0.51728100    3.45151700
 H                0    2.27496100    1.30153800    1.59488100
 N                0    2.31436200    5.43727400    0.36528700
 C                0    1.99488200    6.12149800    1.68898100
 C                0    3.03958000    7.06352700    2.26934300
 H                0    1.77883200    5.31835400    2.39452400
 H                0    1.07204300    6.67985700    1.52059600
 H                0    2.67968600    7.36150300    3.25731900
 H                0    4.01531600    6.59950300    2.40688200
 H                0    3.16092400    7.97520900    1.68196600
 C                0    3.08160100    6.37324000   -0.54445200
 C                0    3.55578600    5.77783100   -1.86149000
 H                0    3.93903900    6.73009500    0.02171100
 H                0    2.41940000    7.22672600   -0.71105400
 H                0    3.95713500    6.59819900   -2.46193200
 H                0    4.35691400    5.05089000   -1.72037600
 H                0    2.77541700    5.28291600   -2.43897600
 C                0    0.98767400    5.10500700   -0.31871700
 C                0    0.01188800    4.27022200    0.49160100
 H                0    1.24765000    4.58063300   -1.23670300
 H                0    0.54780700    6.07192000   -0.57425500
 H                0   -0.89679600    4.15114700   -0.10405300
 H                0    0.38002100    3.26327900    0.68405500
 H                0   -0.28087900    4.73318100    1.43495700
 C                0    3.06658200    4.13228700    0.57418200
 C                0    4.45612300    4.23752600    1.17273100
 H                0    3.09191500    3.65013900   -0.40171900
 H                0    2.44345900    3.53125500    1.23257100
 H                0    4.89515400    3.23861500    1.11954000
 H                0    5.11929700    4.90961000    0.62381700
 H                0    4.43488400    4.51854700    2.22605900
 Br               0    2.18970100    3.01342300    4.11884600
 C                0   -0.00801500   -2.16358600    3.28379100
 O                0   -0.02645500   -1.54063400    4.27063100
 O                0   -0.02874800   -2.88557300    2.36975900

Zn_PO_TEABr_CO_bind_opt_freq3_re

0 1
 Li              -1   -0.65617400   -5.03839400   -3.45744000
 N               -1   -0.28279200   -3.67558200   -2.19468400
 C                0   -0.88055300   -4.09959900   -1.04384800
 Cl               0   -1.59514100   -5.68330000   -1.02980800
 N               -1    2.32822800    2.59904900   -2.41943300
 C                0    3.25584900    1.61855100   -2.30672800
 Cl               0    4.89360700    1.82281200   -2.83467100
 N               -1   -3.32748300    2.07508300    1.06572900
 C                0   -3.49358600    2.08111000   -0.27673800
 Cl               0   -4.80831000    2.89646100   -1.05079300
 Zn               0    0.11017900   -0.07883000   -0.03274300
 N                0   -0.14701100   -2.06368500   -0.64985100
 C                0   -0.80682100   -3.12458100   -0.09248300
 Cl               0   -1.38943600   -3.12501900    1.51166300
 N                0   -1.66309700    0.89123000    0.09704000
 C                0   -2.49223700    1.36335600   -0.87943300
 Cl               0   -2.23880400    1.01762900   -2.55408900
 N                0    1.39553400    0.78047800   -1.43672000
 C                0    2.70499500    0.51298700   -1.70529900
 Cl               0    3.45479000   -0.98757100   -1.29609800
 C                0    0.13916600   -2.44072600   -1.89892900
 H                0    0.66075500   -1.79968400   -2.59473500
 C                0   -2.23115400    1.35334200    1.24219700
 H                0   -1.81848100    1.10879900    2.21205200
 C                0    1.23658500    2.04518500   -1.89662700
 H                0    0.28004500    2.54826500   -1.84556600
 C                0    1.55354600    0.69245100    5.06862500
 C                0    0.17896200    1.14697500    5.55587800
 O                0    1.68981400    0.90017400    3.65133000
 C                0    1.91130600   -0.72818900    5.47144900
 H                0   -0.12538500    2.06516900    5.05645000
 H                0   -0.58195000    0.38599000    5.42301800
 H                0    2.91424600   -0.97573300    5.11569400
 H                0    1.19766200   -1.43343900    5.04492100
 H                0    1.89688800   -0.81801000    6.55989800
 H                0    2.29551800    1.38139400    5.48265000
 N                0    3.12546000    3.95582100    1.46049200
 C                0    2.84603100    4.03397700    2.95340500
 C                0    4.04157500    4.17336200    3.88571200
 H                0    2.27590500    3.13490000    3.19281000
 H                0    2.19668700    4.90102700    3.08883100
 H                0    3.65252200    4.12639000    4.90619300
 H                0    4.77210000    3.37342600    3.77901800
 H                0    4.55102500    5.13280500    3.78094700
 C                0    4.25958800    4.88618600    1.09771600
 C                0    4.57797100    5.00277800   -0.38446200
 H                0    5.13704600    4.53446100    1.63726100
 H                0    3.98663400    5.86140600    1.50958200
 H                0    5.39879800    5.71764100   -0.48367100
 H                0    4.90982200    4.06143900   -0.82417000
 H                0    3.74277500    5.37616400   -0.97705000
 C                0    1.87330500    4.41681100    0.71637400
 C                0    0.56135900    3.82555600    1.20543500
 H                0    2.03307200    4.15274800   -0.32919500
 H                0    1.86092900    5.50634600    0.80654800
 H                0   -0.21523000    4.10969800    0.49176200
 H                0    0.57502400    2.73665700    1.24630900
 H                0    0.25719500    4.20944100    2.18041500
 C                0    3.41227900    2.52879900    1.01291200
 C                0    4.56948600    1.81514100    1.68407300
 H                0    3.56236700    2.58701400   -0.06220200
 H                0    2.50543300    1.95184500    1.19279800
 H                0    4.70484000    0.87834000    1.13811700
 H                0    5.51838400    2.35611900    1.63920500
 H                0    4.33959000    1.54828200    2.71634300
 Br               0    0.24746800    1.57055600    7.47000000
 C                0    0.83834400    0.21814600    2.80047400
 O                0   -0.10367900   -0.42668500    3.23632200
 O                0    1.18211100    0.40451400    1.58188900

Zn_PO_TEABr_CO_TS_3_rere

0 1
 Li              -1   -0.65617400   -5.03839400   -3.45744000
 N               -1   -0.28279200   -3.67558200   -2.19468400
 C                0   -1.57688900   -3.45910200   -1.82330800
 Cl               0   -2.80691700   -4.55534700   -2.40522100
 N               -1    2.32822800    2.59904900   -2.41943300
 C                0    3.28117300    1.68328200   -2.11734400
 Cl               0    4.94295800    1.88709100   -2.56216500
 N               -1   -3.32748300    2.07508300    1.06572900
 C                0   -3.43994900    2.06448400   -0.28005600
 Cl               0   -4.86258600    2.61281400   -1.10108800
 Zn               0    0.18681000   -0.11293700    0.20641300
 N                0   -0.41401200   -1.82341400   -0.93570900
 C                0   -1.67918500   -2.33611200   -1.05922000
 Cl               0   -3.11058300   -1.66685800   -0.42016400
 N                0   -1.41778500    1.25192200    0.15656900
 C                0   -2.29429800    1.56399000   -0.84602600
 Cl               0   -1.99938600    1.24131000   -2.51951400
 N                0    1.38567800    0.88872700   -1.25915800
 C                0    2.72141500    0.65015700   -1.40877000
 Cl               0    3.48302900   -0.75371600   -0.74279100
 C                0    0.37005600   -2.65067400   -1.63118400
 H                0    1.43638600   -2.50449600   -1.72575500
 C                0   -2.11473200    1.58630900    1.27278400
 H                0   -1.71609800    1.42833200    2.26602900
 C                0    1.21987700    2.07472100   -1.88706300
 H                0    0.24945500    2.54131200   -1.96015800
 C                0    1.92050900    0.36656300    2.90959400
 C                0    1.24185100    1.42418100    3.78129100
 O                0    0.92325500   -0.24061900    2.09253900
 C                0    2.70965900   -0.66737000    3.69450600
 H                0    0.52592700    2.00187100    3.19935900
 H                0    0.75208400    0.99080400    4.64770200
 H                0    3.18890300   -1.36385200    3.00291500
 H                0    2.04067900   -1.22272200    4.35209400
 H                0    3.48553900   -0.18089100    4.29115100
 H                0    2.59030100    0.87441600    2.20674800
 N                0    2.57275700    5.21063100    0.59050800
 C                0    2.35294700    5.82740500    1.96612400
 C                0    3.52688000    6.54342100    2.61759400
 H                0    2.01180700    5.01523000    2.60818400
 H                0    1.52877500    6.53343000    1.84809900
 H                0    3.20897000    6.81299200    3.62783800
 H                0    4.41610200    5.92181200    2.71333500
 H                0    3.79524900    7.46909000    2.10606700
 C                0    3.47585400    6.09672400   -0.24299000
 C                0    3.84651000    5.56519000   -1.61840400
 H                0    4.37989900    6.25993600    0.33930000
 H                0    2.95482400    7.05474200   -0.31633500
 H                0    4.39246800    6.35964500   -2.13364400
 H                0    4.50334800    4.69607400   -1.56502300
 H                0    2.99475900    5.28396700   -2.23647500
 C                0    1.21538700    5.13590600   -0.11175200
 C                0    0.11677400    4.39965600    0.63361200
 H                0    1.40001300    4.65055600   -1.06873900
 H                0    0.93072200    6.17540100   -0.29086400
 H                0   -0.79507000    4.48125400    0.03672500
 H                0    0.30431100    3.33054900    0.72795100
 H                0   -0.10469100    4.82226100    1.61491600
 C                0    3.12124800    3.79598600    0.68709400
 C                0    4.52201800    3.64371800    1.25006800
 H                0    3.06103900    3.38966300   -0.32103000
 H                0    2.41579800    3.25002000    1.31131200
 H                0    4.80636800    2.59881700    1.10370300
 H                0    5.26623000    4.24919800    0.72908000
 H                0    4.56763200    3.84072400    2.32103200
 Br               0    2.54478400    2.73474700    4.46614100
 C                0   -0.35477200   -0.92876800    2.72109900
 O                0   -0.33333800   -1.01515500    3.92402200
 O                0   -1.08754900   -1.17769800    1.76426500

Zn 0
LanL2DZ
****
C H O Br Li Cl N 0
6-31G(d,p)
****

Zn 0
LanL2DZ





