%nprocshared=64
%mem=64GB
%chk=Zn_PO_TEABr_opt_freq3.chk
# opt=(calcall,tight,cartesian) freq cam-b3lyp/gen nosymm
scf=(qc,maxcycle=1024,vshift=100) pseudo=read

Zn_PO_TEABr_opt_freq3

0 1
 Li              -1   -0.65617400   -5.03839400   -3.45744000
 N               -1   -0.28279200   -3.67558200   -2.19468400
 C                0   -0.95363700   -4.05128200   -1.06711100
 Cl               0   -1.73158300   -5.60216500   -1.05332600
 N               -1    2.32822800    2.59904900   -2.41943300
 C                0    3.23877800    1.59574800   -2.36945400
 Cl               0    4.80135700    1.72125400   -3.10162200
 N               -1   -3.32748300    2.07508300    1.06572900
 C                0   -3.52558300    1.93876900   -0.26556000
 Cl               0   -4.91800800    2.56722000   -1.07136500
 Zn               0    0.12390500   -0.07736600   -0.04452200
 N                0   -0.16040400   -2.03586100   -0.68088100
 C                0   -0.88756600   -3.05749800   -0.13535500
 Cl               0   -1.55156300   -2.99623800    1.43830800
 N                0   -1.59506900    0.93976900    0.16591100
 C                0   -2.48262000    1.24975500   -0.82690700
 Cl               0   -2.22082900    0.77823700   -2.46837300
 N                0    1.46400100    0.85380100   -1.27281800
 C                0    2.72989500    0.53129100   -1.67163400
 Cl               0    3.46264400   -0.98422600   -1.29472700
 C                0    0.17240300   -2.45228600   -1.90606000
 H                0    0.75473400   -1.85089200   -2.58885800
 C                0   -2.17388300    1.46670300    1.27732400
 H                0   -1.71746600    1.38161900    2.25470500
 C                0    1.28833100    2.10740800   -1.75675500
 H                0    0.35979400    2.64407400   -1.61339400
 C                0    2.34799600    0.43952500    2.10670200
 C                0    1.17132300    1.07576100    2.65960500
 O                0    1.00790500   -0.11410300    1.81888100
 C                0    3.25060400   -0.42181200    2.92706400
 H                0    0.80808100    2.00053200    2.22571600
 H                0    0.90927000    0.90142200    3.69827200
 H                0    3.73415700   -1.18460800    2.31169200
 H                0    2.69755200   -0.90935900    3.73303700
 H                0    4.01275400    0.23202100    3.35896100
 H                0    2.79136600    0.91762800    1.23935300
 N                0    4.05547300    5.56782800   -0.17055800
 C                0    4.16620800    6.30630100    1.15984400
 C                0    5.49646400    6.97109400    1.47946200
 H                0    3.91267600    5.56891600    1.93081900
 H                0    3.38821500    7.07202800    1.13144700
 H                0    5.40872100    7.36248000    2.49596400
 H                0    6.33685300    6.27932900    1.47677600
 H                0    5.72705300    7.81429400    0.82467800
 C                0    4.77290700    6.33785100   -1.25051500
 C                0    4.66359000    5.76716700   -2.65565200
 H                0    5.81872100    6.39485800   -0.95514100
 H                0    4.36527600    7.35159300   -1.21333700
 H                0    5.20524500    6.43919600   -3.32622500
 H                0    5.11608800    4.77863000   -2.74333300
 H                0    3.63574600    5.69901500   -3.01274100
 C                0    2.57844900    5.48295600   -0.54777200
 C                0    1.63325900    5.10288600    0.58268700
 H                0    2.51567700    4.74948200   -1.35255000
 H                0    2.31811400    6.46643800   -0.94863900
 H                0    0.68254800    4.81040700    0.12985600
 H                0    2.00051700    4.27481500    1.19481000
 H                0    1.43258000    5.93633400    1.25772000
 C                0    4.56920100    4.13726400   -0.07184600
 C                0    6.02112800    3.95657800    0.32574200
 H                0    4.36182000    3.68895200   -1.04021200
 H                0    3.96060500    3.65332800    0.69542900
 H                0    6.25899300    2.90328600    0.15843300
 H                0    6.72871100    4.54421200   -0.26528400
 H                0    6.16003700    4.14253800    1.39137900
 Br               0    3.67486900    3.33184800    3.21150100

Zn 0
LanL2DZ
****
C H O Br Li Cl N 0
6-31G(d,p)
****

Zn 0
LanL2DZ



