%nprocshared=64
%mem=64GB
%chk=Zn_PO_TEABr_CO_opt_freq3.chk
# opt=(calcall,tight,cartesian) freq cam-b3lyp/gen nosymm
scf=(qc,maxcycle=1024,vshift=100) pseudo=read

Zn_PO_TEABr_CO_opt_freq3

0 1
 Li              -1   -0.65617400   -5.03839400   -3.45744000
 N               -1   -0.28279200   -3.67558200   -2.19468400
 C                0   -1.44836800   -3.72473000   -1.48580800
 Cl               0   -2.56544700   -5.02050300   -1.82241600
 N               -1    2.32822800    2.59904900   -2.41943300
 C                0    3.34227900    1.75376700   -2.10777100
 Cl               0    4.98672300    2.08202600   -2.54117600
 N               -1   -3.32748300    2.07508300    1.06572900
 C                0   -3.50212200    2.09401400   -0.27413800
 Cl               0   -4.87701400    2.82912700   -1.02647500
 Zn               0    0.14241300   -0.07736700    0.04551300
 N                0   -0.38957400   -1.93007500   -0.79695500
 C                0   -1.52704100   -2.66611500   -0.63084200
 Cl               0   -2.78022200   -2.26094800    0.45730800
 N                0   -1.58548800    1.03346700    0.06340300
 C                0   -2.45446600    1.45898900   -0.89605800
 Cl               0   -2.21165700    1.15083400   -2.58009600
 N                0    1.50947800    0.82458100   -1.27248700
 C                0    2.85689500    0.67426000   -1.41047600
 Cl               0    3.70267500   -0.70552100   -0.81536000
 C                0    0.31384200   -2.56825600   -1.73466000
 H                0    1.27508200   -2.21782000   -2.08257600
 C                0   -2.17776100    1.43213000    1.21711300
 H                0   -1.73880800    1.20714400    2.17974200
 C                0    1.25893800    1.99226600   -1.90521600
 H                0    0.25404200    2.38189300   -1.99072700
 C                0    1.81584600    0.65042900    2.36462900
 C                0    1.07188600    1.54912800    3.35730100
 O                0    0.85179000   -0.18820800    1.83267100
 C                0    2.94026500   -0.13856400    3.02985800
 H                0    0.24256400    2.06116500    2.87623800
 H                0    0.71515000    0.98104700    4.21406200
 H                0    3.40480700   -0.79162900    2.28838500
 H                0    2.53373800   -0.75913800    3.83358600
 H                0    3.70725400    0.51728100    3.45151700
 H                0    2.27496100    1.30153800    1.59488100
 N                0    2.31436200    5.43727400    0.36528700
 C                0    1.99488200    6.12149800    1.68898100
 C                0    3.03958000    7.06352700    2.26934300
 H                0    1.77883200    5.31835400    2.39452400
 H                0    1.07204300    6.67985700    1.52059600
 H                0    2.67968600    7.36150300    3.25731900
 H                0    4.01531600    6.59950300    2.40688200
 H                0    3.16092400    7.97520900    1.68196600
 C                0    3.08160100    6.37324000   -0.54445200
 C                0    3.55578600    5.77783100   -1.86149000
 H                0    3.93903900    6.73009500    0.02171100
 H                0    2.41940000    7.22672600   -0.71105400
 H                0    3.95713500    6.59819900   -2.46193200
 H                0    4.35691400    5.05089000   -1.72037600
 H                0    2.77541700    5.28291600   -2.43897600
 C                0    0.98767400    5.10500700   -0.31871700
 C                0    0.01188800    4.27022200    0.49160100
 H                0    1.24765000    4.58063300   -1.23670300
 H                0    0.54780700    6.07192000   -0.57425500
 H                0   -0.89679600    4.15114700   -0.10405300
 H                0    0.38002100    3.26327900    0.68405500
 H                0   -0.28087900    4.73318100    1.43495700
 C                0    3.06658200    4.13228700    0.57418200
 C                0    4.45612300    4.23752600    1.17273100
 H                0    3.09191500    3.65013900   -0.40171900
 H                0    2.44345900    3.53125500    1.23257100
 H                0    4.89515400    3.23861500    1.11954000
 H                0    5.11929700    4.90961000    0.62381700
 H                0    4.43488400    4.51854700    2.22605900
 Br               0    2.18970100    3.01342300    4.11884600
 C                0   -0.00801500   -2.16358600    3.28379100
 O                0   -0.02645500   -1.54063400    4.27063100
 O                0   -0.02874800   -2.88557300    2.36975900

Zn 0
LanL2DZ
****
C H O Br Li Cl N 0
6-31G(d,p)
****

Zn 0
LanL2DZ



