%nprocshared=64
%mem=64GB
%chk=Zn_PO_TEABr_ring_opened_opt_freq3_re.chk
# opt=(calcall,tight,cartesian) freq cam-b3lyp/gen nosymm
scf=(qc,maxcycle=1024,vshift=100) pseudo=read

Zn_PO_TEABr_ring_opened_opt_freq3_re

0 1
 Li              -1   -0.65617400   -5.03839400   -3.45744000
 N               -1   -0.28279200   -3.67558200   -2.19468400
 C                0   -1.20525200   -3.92592900   -1.22180500
 Cl               0   -2.15661900   -5.37785200   -1.35172000
 N               -1    2.32822800    2.59904900   -2.41943300
 C                0    3.34343100    1.77528000   -2.05753200
 Cl               0    4.99598500    2.11631100   -2.44974200
 N               -1   -3.32748300    2.07508300    1.06572900
 C                0   -3.49911300    2.10243100   -0.27504400
 Cl               0   -4.84467800    2.89016200   -1.02866700
 Zn               0    0.14309600   -0.08106100    0.07775100
 N                0   -0.27964400   -1.99763200   -0.71313800
 C                0   -1.21328300   -2.90965700   -0.31158500
 Cl               0   -2.17456700   -2.72257900    1.08894600
 N                0   -1.62703700    0.96553900    0.06280300
 C                0   -2.47614500    1.42749600   -0.89663600
 Cl               0   -2.23664800    1.11632700   -2.58144800
 N                0    1.49978700    0.83847400   -1.25293600
 C                0    2.85349500    0.70577100   -1.34746200
 Cl               0    3.70270200   -0.63972400   -0.68428400
 C                0    0.24257300   -2.49603800   -1.83449100
 H                0    1.01530500   -1.98699900   -2.39277000
 C                0   -2.20372400    1.38606900    1.21693500
 H                0   -1.76726700    1.14590800    2.17692600
 C                0    1.25221300    1.98811800   -1.92167300
 H                0    0.24462000    2.36047000   -2.04698600
 C                0    1.77398200    0.57815800    2.47418500
 C                0    1.05638600    1.53266000    3.43557800
 O                0    0.76843000   -0.15146000    1.88206500
 C                0    2.76496200   -0.32615300    3.20110100
 H                0    0.28604800    2.09917300    2.91877800
 H                0    0.62065300    0.99577600    4.27659700
 H                0    3.24159000   -0.98973400    2.47661900
 H                0    2.22630200   -0.94496000    3.92531800
 H                0    3.54009600    0.24205700    3.72391800
 H                0    2.34808800    1.19485800    1.75263300
 N                0    2.24355500    5.35229400    0.48554200
 C                0    1.92037000    5.99523100    1.82892700
 C                0    2.96887000    6.90889900    2.44631300
 H                0    1.69722700    5.17198400    2.50839800
 H                0    1.00240100    6.56525500    1.67354000
 H                0    2.60580700    7.17529500    3.44208700
 H                0    3.93964900    6.43169200    2.57327600
 H                0    3.10102000    7.83903700    1.89107300
 C                0    3.02345000    6.31317500   -0.38667400
 C                0    3.49820100    5.76257900   -1.72265200
 H                0    3.88156200    6.64085000    0.19581100
 H                0    2.36993000    7.17841900   -0.52460500
 H                0    3.91703000    6.59978200   -2.28690100
 H                0    4.28635000    5.01751300   -1.60563100
 H                0    2.71451300    5.30469200   -2.32543600
 C                0    0.91972600    5.05230700   -0.21842000
 C                0   -0.06908900    4.20041300    0.55713200
 H                0    1.18262100    4.55480700   -1.15036600
 H                0    0.48950100    6.03013700   -0.44760800
 H                0   -0.97224300    4.10210800   -0.05066600
 H                0    0.29160900    3.18660900    0.72594600
 H                0   -0.37061000    4.63911100    1.50933900
 C                0    2.98565100    4.03559200    0.65593300
 C                0    4.37641900    4.11104000    1.25611600
 H                0    3.00894100    3.58310100   -0.33393800
 H                0    2.35693800    3.41874400    1.29420200
 H                0    4.80583700    3.11002800    1.17237300
 H                0    5.04473600    4.79250100    0.72541400
 H                0    4.35816100    4.35990600    2.31730200
 Br               0    2.23752900    2.91683100    4.25460600

Zn 0
LanL2DZ
****
C H O Br Li Cl N 0
6-31G(d,p)
****

Zn 0
LanL2DZ




