%nprocshared=64
%mem=64GB
%chk=4_test_opt_freq_from_IRC_TBAB.chk
# opt=(calcall,tight,cartesian) freq cam-b3lyp/gen nosymm
scf=(qc,maxcycle=1024,vshift=100) pseudo=read

4_test_opt_freq_from_IRC_TBAB

0 1
 Li              -1   -1.73232200   -6.83326200   -3.63091300
 N               -1   -1.35894000   -5.47045000   -2.36815700
 C                0   -2.06260600   -5.84419100   -1.26114900
 Cl               0   -2.84584600   -7.39738700   -1.27776100
 N               -1    1.25208000    0.80418100   -2.59290600
 C                0    2.17278600   -0.18731800   -2.53504100
 Cl               0    3.73548900   -0.04045100   -3.26943500
 N               -1   -4.40363100    0.28021500    0.89225600
 C                0   -4.58644600    0.21019300   -0.44720600
 Cl               0   -5.95464900    0.91533600   -1.23891100
 Zn               0   -0.89848400   -1.88195400   -0.07304400
 N                0   -1.28679200   -3.82596600   -0.84846000
 C                0   -2.02630000   -4.84940400   -0.32750100
 Cl               0   -2.74444000   -4.79666100    1.22330300
 N                0   -2.68311900   -0.85330900   -0.04931100
 C                0   -3.55095500   -0.47699900   -1.03061700
 Cl               0   -3.29655000   -0.87808000   -2.69273600
 N                0    0.38703300   -0.97358700   -1.47941700
 C                0    1.66337000   -1.26746800   -1.85495400
 Cl               0    2.41968300   -2.77455000   -1.48727200
 C                0   -0.91744400   -4.24170400   -2.06076200
 H                0   -0.31686800   -3.63717200   -2.72461900
 C                0   -3.26038100   -0.37026600    1.07920500
 H                0   -2.81011400   -0.52865300    2.04982800
 C                0    0.20274800    0.27729900   -1.95953700
 H                0   -0.74479900    0.78839400   -1.84976100
 C                0    0.86465000   -1.10348000    2.16668800
 C                0    0.17382600   -0.07598700    3.06837700
 O                0   -0.16047300   -1.89234800    1.69204200
 C                0    1.89718800   -1.93547100    2.92103700
 H                0   -0.59838000    0.46125100    2.52379600
 H                0   -0.24674300   -0.54358400    3.95705200
 H                0    2.34521600   -2.65766200    2.23445600
 H                0    1.40046100   -2.49349100    3.72073700
 H                0    2.69124500   -1.32112200    3.35632300
 H                0    1.38994300   -0.54547200    1.36741700
 N                0    2.11545000    3.81111300    0.14286200
 C                0    0.83086000    2.98645100    0.27008100
 H                0    0.92563700    2.44983300    1.21513000
 H                0    0.87076300    2.26009500   -0.54237100
 C                0    1.89875500    4.92398200   -0.85788200
 H                0    1.08092700    5.53370000   -0.47832300
 H                0    1.54858500    4.43112800   -1.76820800
 C                0    3.21484100    2.89708600   -0.39215200
 H                0    4.13104000    3.48852700   -0.35843100
 H                0    2.95871700    2.69738000   -1.43553300
 C                0    2.57259000    4.33043300    1.48953400
 H                0    3.51824600    4.84540400    1.31263700
 H                0    2.78285500    3.44650300    2.08913600
 Br               0    1.38045700    1.36041600    3.77492500
 C                0    1.62145400    5.22541100    2.26887200
 C                0    2.30066900    5.69667500    3.55856700
 H                0    0.71857700    4.67116100    2.53642100
 H                0    1.31436600    6.09858100    1.68252900
 C                0    1.38260600    6.56175100    4.41620500
 H                0    2.61964300    4.82037000    4.13472000
 H                0    3.21204400    6.25509100    3.31160800
 H                0    1.88792500    6.88523200    5.32928300
 H                0    1.06258500    7.45856300    3.87664800
 H                0    0.48477500    6.01060300    4.71021300
 C                0    3.41825000    1.57612700    0.34530400
 C                0    4.83925300    1.05458000    0.11119600
 H                0    2.69900500    0.83910700   -0.01968500
 H                0    3.25067600    1.66590400    1.42151800
 C                0    5.04318800   -0.33603100    0.70303900
 H                0    5.04631600    1.02629900   -0.96336600
 H                0    5.55656000    1.75819100    0.55411800
 H                0    6.07068700   -0.67827500    0.55503600
 H                0    4.83668200   -0.34478100    1.77779300
 H                0    4.37737000   -1.06299700    0.23008200
 C                0   -0.49936300    3.73637500    0.20684700
 C                0   -1.63004500    2.83766500    0.71936900
 H                0   -0.71831100    4.03232300   -0.82419400
 H                0   -0.48935000    4.65152400    0.80380100
 C                0   -3.00196700    3.49247400    0.59971100
 H                0   -1.63294900    1.88770000    0.17458900
 H                0   -1.43354800    2.58618900    1.76871500
 H                0   -3.77502300    2.81329300    0.96451100
 H                0   -3.05007900    4.42278600    1.17632600
 H                0   -3.23541300    3.73078500   -0.44267800
 C                0    3.09628500    5.81477900   -1.16423300
 C                0    2.69459500    6.91779400   -2.14834700
 H                0    3.91736600    5.23736300   -1.59814900
 H                0    3.47780000    6.28371600   -0.25108400
 C                0    3.85797400    7.84559200   -2.48495200
 H                0    2.30871600    6.46183900   -3.06732700
 H                0    1.86892800    7.50158600   -1.72416600
 H                0    3.54945100    8.62399000   -3.18667100
 H                0    4.24353200    8.33987800   -1.58789100
 H                0    4.68448600    7.29382700   -2.94264200

Zn 0
LanL2DZ
****
C H O Br Li Cl N 0
6-31G(d,p)
****

Zn 0
LanL2DZ



