%mem=64GB
%nprocshared=64
%chk=TBABr_opt_freq.chk
# opt=(calcfc,tight) freq cam-b3lyp/gen nosymm pseudo=read scf=xqc

TBABr_opt_freq

0 1
 N                 -0.22515100    0.45440300    0.24431000
 C                 -1.22123600    1.17829900    1.15143000
 H                 -0.75316100    2.14403200    1.38577200
 H                 -1.27915600    0.57174000    2.05863200
 C                 -0.92132900   -0.68015000   -0.46099400
 H                 -1.71482500   -0.23571500   -1.05955300
 H                 -1.39797300   -1.27391100    0.32436200
 C                  0.87175200   -0.11107100    1.13347900
 H                  1.66927000   -0.43183800    0.46175500
 H                  0.45264200   -1.00554500    1.60364000
 C                  0.45320700    1.40618400   -0.73506300
 H                  1.20814100    0.80782900   -1.24855400
 H                  0.93399300    2.17357900   -0.12134600
 Br                 0.37342100    4.31041900    1.06814900
 C                 -0.42370100    2.14070400   -1.73303600
 C                  0.47312800    2.96180400   -2.66363900
 H                 -1.05747300    2.84570000   -1.19133900
 H                 -1.05474100    1.46436400   -2.32367900
 C                 -0.33247000    3.76103500   -3.68234200
 H                  1.05907400    3.64578600   -2.04100000
 H                  1.17980400    2.30133900   -3.18344600
 H                  0.32400700    4.34245600   -4.33476500
 H                 -0.94024500    3.10753900   -4.31759000
 H                 -1.00450600    4.46190200   -3.17914100
 C                  1.43372100    0.83727600    2.19106500
 C                  2.80162500    0.34846600    2.67134800
 H                  0.75255400    0.88786600    3.04568600
 H                  1.51348900    1.86536200    1.81969900
 C                  3.35145700    1.21805800    3.79785100
 H                  2.73457200   -0.69489900    3.00788700
 H                  3.50288100    0.35469100    1.82764400
 H                  4.34373800    0.88208600    4.10983900
 H                  3.42818400    2.26159800    3.48081200
 H                  2.69677000    1.18740300    4.67399800
 C                 -2.63316900    1.40930000    0.62438300
 C                 -3.33959600    2.40301400    1.55325200
 H                 -3.20529200    0.47488700    0.58250700
 H                 -2.62398100    1.82604000   -0.38399800
 C                 -4.77560000    2.68108700    1.12219300
 H                 -3.33271400    2.01187700    2.57840200
 H                 -2.75774100    3.33082800    1.57085200
 H                 -5.25673700    3.39359300    1.79672400
 H                 -4.80900600    3.10692600    0.11450800
 H                 -5.37866300    1.76684100    1.11765700
 C                 -0.05806600   -1.57294700   -1.34273000
 C                 -0.90942400   -2.67935300   -1.97178000
 H                  0.75107400   -2.03278000   -0.76711300
 H                  0.40798100   -0.98775500   -2.14134400
 C                 -0.09361900   -3.59929500   -2.87477100
 H                 -1.38477600   -3.26914000   -1.17875600
 H                 -1.72501200   -2.22689000   -2.54830200
 H                 -0.72064500   -4.37995800   -3.31200000
 H                  0.36516400   -3.04143900   -3.69661300
 H                  0.70969700   -4.09067300   -2.31743700

C H Br N 0
6-31G(d,p)
****



