%nprocshared=64
%mem=64GB
%chk=Zn_PO_TBABr_TS_QST3_3.chk
# opt=(calcfc,tight,qst3,cartesian) freq cam-b3lyp/gen nosymm
scf=(qc,maxcycle=1024,vshift=100) pseudo=read

Zn_PO_TBABr_opt_freq3

0 1
 Li              -1   -0.65617400   -5.03839400   -3.45744000
 N               -1   -0.28279200   -3.67558200   -2.19468400
 C                0   -0.98599900   -4.03724600   -1.08239300
 Cl               0   -1.79409300   -5.57284600   -1.08565900
 N               -1    2.32822800    2.59904900   -2.41943300
 C                0    3.25372000    1.61381800   -2.32894100
 Cl               0    4.82626300    1.75307500   -3.03251500
 N               -1   -3.32748300    2.07508300    1.06572900
 C                0   -3.51054100    1.96437200   -0.27078900
 Cl               0   -4.87876500    2.63373300   -1.08323100
 Zn               0    0.12561700   -0.08224000   -0.04039200
 N                0   -0.16169200   -2.03810500   -0.67860500
 C                0   -0.92108800   -3.04473800   -0.14931600
 Cl               0   -1.61890300   -2.96969400    1.40897000
 N                0   -1.60548900    0.92053400    0.17079800
 C                0   -2.47359300    1.26365300   -0.82863000
 Cl               0   -2.20436500    0.80675700   -2.47243100
 N                0    1.46152900    0.85524800   -1.26827200
 C                0    2.74393500    0.55041000   -1.62765600
 Cl               0    3.49002800   -0.94772700   -1.20552100
 C                0    0.19053200   -2.46168000   -1.89600400
 H                0    0.79955600   -1.87187100   -2.56565100
 C                0   -2.18831700    1.43967500    1.28277100
 H                0   -1.74820400    1.33090800    2.26487800
 C                0    1.27755000    2.09730600   -1.78236500
 H                0    0.33402600    2.61730000   -1.68268800
 C                0    2.28661800    0.48305500    2.17542800
 C                0    1.07217900    1.05862900    2.71180100
 O                0    0.98584000   -0.12120700    1.83686400
 C                0    3.20253800   -0.34886900    3.01235300
 H                0    0.67478100    1.97235300    2.28762400
 H                0    0.79615000    0.85043800    3.73972300
 H                0    3.77799800   -1.04716700    2.39984100
 H                0    2.63739500   -0.90889400    3.76062600
 H                0    3.88466400    0.33355400    3.52672300
 H                0    2.73486600    0.99237900    1.32718900
 N                0    3.57517700    5.59410500    0.41076800
 C                0    2.28897500    4.77719600    0.55731300
 H                0    2.40687400    4.21926300    1.49277100
 H                0    2.29220900    4.08303300   -0.28463000
 C                0    3.34074700    6.72124900   -0.56377600
 H                0    2.55931500    7.34760100   -0.13685600
 H                0    2.93386000    6.25257800   -1.46375200
 C                0    4.64927200    4.67904800   -0.16070500
 H                0    5.58077800    5.24382600   -0.09950900
 H                0    4.39974100    4.53780800   -1.21538900
 C                0    4.07820200    6.08569000    1.75807500
 H                0    5.02289700    6.59475800    1.55768400
 H                0    4.26777400    5.18914800    2.35146000
 Br               0    3.01337700    3.45185500    3.87653500
 C                0    3.15359600    6.96898500    2.57763600
 C                0    3.86967600    7.37873800    3.86752800
 H                0    2.26819100    6.39658200    2.86220800
 H                0    2.83450200    7.86384500    2.02891800
 C                0    2.99840700    8.26064000    4.75578500
 H                0    4.13810000    6.46453400    4.40723000
 H                0    4.80370700    7.90284600    3.62611500
 H                0    3.52484300    8.53850100    5.67249900
 H                0    2.70847700    9.18480100    4.24442300
 H                0    2.08361100    7.73571800    5.04539000
 C                0    4.81620500    3.32553600    0.52818100
 C                0    6.24474500    2.80555400    0.35133900
 H                0    4.11893000    2.61016200    0.08282700
 H                0    4.57442000    3.36756900    1.59524500
 C                0    6.41330900    1.40118400    0.92204600
 H                0    6.51343200    2.80434500   -0.71137900
 H                0    6.93948100    3.49199800    0.85201500
 H                0    7.44596900    1.05514100    0.82591500
 H                0    6.14574500    1.37732300    1.98279100
 H                0    5.77309800    0.68638600    0.39571100
 C                0    0.96590500    5.54164000    0.55807500
 C                0   -0.15264200    4.62247800    1.06027400
 H                0    0.71730100    5.89147400   -0.44991600
 H                0    1.00027000    6.42264300    1.20218900
 C                0   -1.52747800    5.28096000    1.00499400
 H                0   -0.16879100    3.70371800    0.46186200
 H                0    0.08129500    4.32227000    2.08832800
 H                0   -2.30413600    4.58708200    1.33434200
 H                0   -1.56505900    6.16941700    1.64388100
 H                0   -1.77460400    5.59303900   -0.01497200
 C                0    4.54390900    7.58481700   -0.92030200
 C                0    4.12734700    8.69190100   -1.89281300
 H                0    5.33410300    6.98746500   -1.38421900
 H                0    4.97115700    8.04456900   -0.02333300
 C                0    5.29648700    9.58766500   -2.29016200
 H                0    3.68800500    8.24065900   -2.79023200
 H                0    3.33693100    9.29936600   -1.43604300
 H                0    4.97645500   10.36955800   -2.98311300
 H                0    5.73549700   10.07713500   -1.41538800
 H                0    6.08711900    9.01160100   -2.78047600

Zn_PO_TBABr_ring_opened_opt_freq3

0 1
 Li              -1   -0.65617400   -5.03839400   -3.45744000
 N               -1   -0.28279200   -3.67558200   -2.19468400
 C                0   -1.13865800   -3.96639600   -1.17324400
 Cl               0   -2.03786500   -5.45391500   -1.25994200
 N               -1    2.32822800    2.59904900   -2.41943300
 C                0    3.27176000    1.63035200   -2.31115200
 Cl               0    4.85835800    1.80783300   -2.98428600
 N               -1   -3.32748300    2.07508300    1.06572900
 C                0   -3.49513800    2.06802600   -0.27668700
 Cl               0   -4.84348200    2.82806200   -1.05147900
 Zn               0    0.15802500   -0.08120400    0.09054800
 N                0   -0.26108000   -2.00440000   -0.70440400
 C                0   -1.13452700   -2.95453900   -0.25778500
 Cl               0   -2.02261200   -2.80901300    1.19552000
 N                0   -1.60813400    0.96757100    0.09500500
 C                0   -2.46012900    1.39614100   -0.87858700
 Cl               0   -2.19447800    1.06431100   -2.55464000
 N                0    1.47672100    0.83807400   -1.27798700
 C                0    2.76723500    0.56031100   -1.61290100
 Cl               0    3.54355000   -0.92009900   -1.18900500
 C                0    0.21466300   -2.47726700   -1.85709100
 H                0    0.93556200   -1.93878900   -2.45469200
 C                0   -2.19422600    1.40558300    1.23739000
 H                0   -1.75766500    1.19862100    2.20514600
 C                0    1.27564600    2.07082000   -1.79215100
 H                0    0.31910400    2.56943100   -1.70819900
 C                0    1.88348800    0.64886700    2.37402200
 C                0    1.18042000    1.60361000    3.34424900
 O                0    0.87921600   -0.13880700    1.85581900
 C                0    2.94297400   -0.20494600    3.06500000
 H                0    0.38616600    2.14913900    2.84130000
 H                0    0.78164500    1.06903000    4.20492500
 H                0    3.40898100   -0.86348900    2.32818400
 H                0    2.46280700   -0.83208100    3.82237000
 H                0    3.72008200    0.39733800    3.54494100
 H                0    2.39119100    1.27082600    1.60715200
 N                0    3.32610300    5.36481400   -0.12076700
 C                0    2.09389000    4.74349700    0.54681000
 H                0    2.27182900    4.78579700    1.62218300
 H                0    2.10542800    3.69358700    0.25107500
 C                0    2.99487900    5.70615300   -1.56412800
 H                0    2.15495900    6.39731800   -1.53232800
 H                0    2.65818600    4.76594600   -2.01525500
 C                0    4.42191800    4.30382900   -0.13581700
 H                0    5.25887000    4.73492300   -0.68429200
 H                0    4.01708500    3.48642300   -0.73173700
 C                0    3.84537500    6.55500500    0.65003900
 H                0    4.82518300    6.78333800    0.22485700
 H                0    4.00738300    6.20546600    1.66978000
 Br               0    2.35647400    3.01978000    4.10708100
 C                0    2.99212500    7.81518200    0.67391000
 C                0    3.75123200    8.94784700    1.37148500
 H                0    2.05670300    7.63574300    1.20888700
 H                0    2.72869300    8.13442100   -0.33930300
 C                0    2.92914500   10.22989400    1.45913500
 H                0    4.03911400    8.62658800    2.37956600
 H                0    4.68618300    9.14518800    0.83299700
 H                0    3.49076100   11.02438000    1.95614100
 H                0    2.65073100   10.59066200    0.46429600
 H                0    2.00667300   10.07010300    2.02506000
 C                0    4.90471800    3.79972400    1.21694500
 C                0    5.82000000    2.58673800    1.01732800
 H                0    4.07382800    3.50630100    1.86327200
 H                0    5.46380700    4.57997900    1.74525900
 C                0    6.43641300    2.11513500    2.33042900
 H                0    5.24209000    1.77363500    0.56452500
 H                0    6.61399500    2.83374800    0.30164600
 H                0    7.05388200    1.22678500    2.17733000
 H                0    7.07034500    2.89086300    2.77225200
 H                0    5.66061900    1.86363000    3.05888500
 C                0    0.72341700    5.31950500    0.20682100
 C                0   -0.35616100    4.61088200    1.03308100
 H                0    0.49691800    5.17017500   -0.85230600
 H                0    0.67093600    6.39449500    0.39818100
 C                0   -1.74819200    5.17937400    0.77467200
 H                0   -0.35589600    3.54243000    0.79133500
 H                0   -0.11307600    4.68885900    2.09991600
 H                0   -2.50387200    4.59868200    1.30669200
 H                0   -1.81646800    6.22545500    1.09215800
 H                0   -2.00002300    5.13241300   -0.28924800
 C                0    4.11602200    6.31194500   -2.39806100
 C                0    3.58889600    6.62723800   -3.80176800
 H                0    4.95515300    5.61792600   -2.49676100
 H                0    4.50422700    7.23253300   -1.94636000
 C                0    4.66544400    7.21403900   -4.70903400
 H                0    3.18979700    5.70845600   -4.24489200
 H                0    2.74758100    7.32702800   -3.72762200
 H                0    4.26642500    7.43137900   -5.70272400
 H                0    5.06658900    8.14693300   -4.30008700
 H                0    5.50025200    6.51751700   -4.83177000

Zn_PO_TBABr_TS_QST3_3

0 1
 Li              -1   -0.65617400   -5.03839400   -3.45744000
 N               -1   -0.28279200   -3.67558200   -2.19468400
 C                0   -0.98599900   -4.03724600   -1.08239300
 Cl               0   -1.79409300   -5.57284600   -1.08565900
 N               -1    2.32822800    2.59904900   -2.41943300
 C                0    3.25372000    1.61381800   -2.32894100
 Cl               0    4.82626300    1.75307500   -3.03251500
 N               -1   -3.32748300    2.07508300    1.06572900
 C                0   -3.51054100    1.96437200   -0.27078900
 Cl               0   -4.87876500    2.63373300   -1.08323100
 Zn               0    0.12561700   -0.08224000   -0.04039200
 N                0   -0.16169200   -2.03810500   -0.67860500
 C                0   -0.92108800   -3.04473800   -0.14931600
 Cl               0   -1.61890300   -2.96969400    1.40897000
 N                0   -1.60548900    0.92053400    0.17079800
 C                0   -2.47359300    1.26365300   -0.82863000
 Cl               0   -2.20436500    0.80675700   -2.47243100
 N                0    1.46152900    0.85524800   -1.26827200
 C                0    2.74393500    0.55041000   -1.62765600
 Cl               0    3.49002800   -0.94772700   -1.20552100
 C                0    0.19053200   -2.46168000   -1.89600400
 H                0    0.79955600   -1.87187100   -2.56565100
 C                0   -2.18831700    1.43967500    1.28277100
 H                0   -1.74820400    1.33090800    2.26487800
 C                0    1.27755000    2.09730600   -1.78236500
 H                0    0.33402600    2.61730000   -1.68268800
 C                0    2.25834048    0.57203326    2.64854119
 C                0    0.88862285    1.42134448    3.14519384
 O                0    0.98584000   -0.12120700    1.83686400
 C                0    3.45904465   -0.14948013    3.16736521
 H                0    0.64277466    2.36578636    2.67579948
 H                0    0.40426215    1.22009442    4.09443157
 H                0    4.02120498   -0.62126131    2.35783230
 H                0    3.16610546   -0.91154463    3.89287981
 H                0    4.09120145    0.58791887    3.66955442
 H                0    2.42837539    1.27342453    1.83676227
 N                0    3.57517700    5.59410500    0.41076800
 C                0    2.28897500    4.77719600    0.55731300
 H                0    2.40687400    4.21926300    1.49277100
 H                0    2.29220900    4.08303300   -0.28463000
 C                0    3.34074700    6.72124900   -0.56377600
 H                0    2.55931500    7.34760100   -0.13685600
 H                0    2.93386000    6.25257800   -1.46375200
 C                0    4.64927200    4.67904800   -0.16070500
 H                0    5.58077800    5.24382600   -0.09950900
 H                0    4.39974100    4.53780800   -1.21538900
 C                0    4.07820200    6.08569000    1.75807500
 H                0    5.02289700    6.59475800    1.55768400
 H                0    4.26777400    5.18914800    2.35146000
 Br               0    2.28146020    3.05536519    4.63496300
 C                0    3.15359600    6.96898500    2.57763600
 C                0    3.86967600    7.37873800    3.86752800
 H                0    2.26819100    6.39658200    2.86220800
 H                0    2.83450200    7.86384500    2.02891800
 C                0    2.99840700    8.26064000    4.75578500
 H                0    4.13810000    6.46453400    4.40723000
 H                0    4.80370700    7.90284600    3.62611500
 H                0    3.52484300    8.53850100    5.67249900
 H                0    2.70847700    9.18480100    4.24442300
 H                0    2.08361100    7.73571800    5.04539000
 C                0    4.81620500    3.32553600    0.52818100
 C                0    6.24474500    2.80555400    0.35133900
 H                0    4.11893000    2.61016200    0.08282700
 H                0    4.57442000    3.36756900    1.59524500
 C                0    6.41330900    1.40118400    0.92204600
 H                0    6.51343200    2.80434500   -0.71137900
 H                0    6.93948100    3.49199800    0.85201500
 H                0    7.44596900    1.05514100    0.82591500
 H                0    6.14574500    1.37732300    1.98279100
 H                0    5.77309800    0.68638600    0.39571100
 C                0    0.96590500    5.54164000    0.55807500
 C                0   -0.15264200    4.62247800    1.06027400
 H                0    0.71730100    5.89147400   -0.44991600
 H                0    1.00027000    6.42264300    1.20218900
 C                0   -1.52747800    5.28096000    1.00499400
 H                0   -0.16879100    3.70371800    0.46186200
 H                0    0.08129500    4.32227000    2.08832800
 H                0   -2.30413600    4.58708200    1.33434200
 H                0   -1.56505900    6.16941700    1.64388100
 H                0   -1.77460400    5.59303900   -0.01497200
 C                0    4.54390900    7.58481700   -0.92030200
 C                0    4.12734700    8.69190100   -1.89281300
 H                0    5.33410300    6.98746500   -1.38421900
 H                0    4.97115700    8.04456900   -0.02333300
 C                0    5.29648700    9.58766500   -2.29016200
 H                0    3.68800500    8.24065900   -2.79023200
 H                0    3.33693100    9.29936600   -1.43604300
 H                0    4.97645500   10.36955800   -2.98311300
 H                0    5.73549700   10.07713500   -1.41538800
 H                0    6.08711900    9.01160100   -2.78047600

Zn 0
LanL2DZ
****
C H O Br Li Cl N 0
6-31G(d,p)
****

Zn 0
LanL2DZ







