%nprocshared=64
%mem=64GB
%chk=Zn_PO_opt_freq2.chk
# opt=(calcall,tight,cartesian) freq cam-b3lyp/gen nosymm
scf=(qc,maxcycle=1024,vshift=100) pseudo=read

Zn_PO_opt_freq2

0 1
 Li              -1   -0.65617400   -5.03839400   -3.45744000
 N               -1   -0.28279200   -3.67558200   -2.19468400
 C                0   -0.88923800   -4.07517600   -1.03930400
 Cl               0   -1.63563300   -5.63947600   -0.99828300
 N               -1    2.32822800    2.59904900   -2.41943300
 C                0    3.25906600    1.62547000   -2.29287800
 Cl               0    4.84903500    1.76008100   -2.95154100
 N               -1   -3.32748300    2.07508300    1.06572900
 C                0   -3.66690800    1.75981200   -0.20594400
 Cl               0   -5.16054200    2.24689500   -0.92123100
 Zn               0    0.07080000   -0.05351600   -0.12842400
 N                0   -0.10226300   -2.05328800   -0.66874900
 C                0   -0.78753300   -3.09093500   -0.10104200
 Cl               0   -1.36275900   -3.05784600    1.51025200
 N                0   -1.67153600    0.86401400    0.13316400
 C                0   -2.66919100    1.02317000   -0.78705600
 Cl               0   -2.55583200    0.35512200   -2.37579200
 N                0    1.44860000    0.87281700   -1.25767500
 C                0    2.74086900    0.56988200   -1.58839400
 Cl               0    3.48140000   -0.92985600   -1.14109600
 C                0    0.17316500   -2.45104100   -1.91486000
 H                0    0.71157400   -1.83241500   -2.61869300
 C                0   -2.13909900    1.52364900    1.22496400
 H                0   -1.56945900    1.57757200    2.14356600
 C                0    1.27200900    2.11176500   -1.79272300
 H                0    0.33007100    2.63770100   -1.70411100
 C                0    2.04194100   -0.77351200    2.33521800
 C                0    2.14070900    0.67352000    2.13976500
 O                0    0.91580700   -0.02411400    1.80909200
 C                0    1.81697500   -1.39245600    3.68061900
 H                0    2.67645300    1.07013300    1.28211800
 H                0    2.03772800    1.33501300    2.99523100
 H                0    1.19244000   -2.28454000    3.59059500
 H                0    1.32421300   -0.68813400    4.35401900
 H                0    2.77470800   -1.68728100    4.11842400
 H                0    2.51372900   -1.39845800    1.58018400

Zn 0
LanL2DZ
****
C H O Li Cl N 0
6-31G(d,p)
****

Zn 0
LanL2DZ



